geometry optimzed in LAMMPS
_audit_creation_date              2020-11-30 
_audit_creation_method            'lammps2cif' 
_symmetry_space_group_name_H-M    'P1' 
_symmetry_Int_Tables_number       1 
_symmetry_cell_setting            triclinic 
loop_ 
_symmetry_equiv_pos_as_xyz 
  x,y,z 
_cell_length_a                    49.44590721 
_cell_length_b                    31.720580848005472 
_cell_length_c                    36.05594022750085 
_cell_angle_alpha                 89.73666528309671 
_cell_angle_beta                  90.19723438197697 
_cell_angle_gamma                 88.77860509410519 
loop_ 
_atom_site_label 
_atom_site_type_symbol 
_atom_site_fract_x 
_atom_site_fract_y 
_atom_site_fract_z 
_atom_site_charge 
Zn1        Zn  0.60698266  0.37638749  0.39044038     1.49700
Zn2        Zn  0.60440010  0.38064213  0.30156668     1.49400
Zn3        Zn  0.64965787  0.43025588  0.34395158     1.49100
Zn4        Zn  0.65266428  0.32990804  0.33986447     1.49500
O5          O  0.62834472  0.37923010  0.34426689    -1.84000
O6          O  0.56652927  0.37632072  0.37927824    -0.74700
O7          O  0.61225503  0.42976347  0.26791481    -0.74500
O8          O  0.64144023  0.46542751  0.38866854    -0.74000
O9          O  0.56581373  0.38529329  0.31797905    -0.74700
O10         O  0.61488522  0.42638279  0.42408507    -0.74300
O11         O  0.64325774  0.46591532  0.29788507    -0.74900
O12         O  0.69185525  0.34599162  0.33982012    -0.74200
O13         O  0.60801396  0.32735572  0.27174995    -0.75000
O14         O  0.68929244  0.41541791  0.34572175    -0.74400
O15         O  0.64489716  0.29500990  0.29431543    -0.74900
O16         O  0.64741555  0.29186549  0.38343741    -0.74800
O17         O  0.61616397  0.32293391  0.41862932    -0.74600
C18         C  0.55367550  0.38156345  0.34885249     0.77200
C19         C  0.62792567  0.46103199  0.26983953     0.77700
C20         C  0.62837253  0.45967307  0.41855215     0.76700
C21         C  0.70324661  0.38142237  0.34298364     0.77100
C22         C  0.62534141  0.29712686  0.27132039     0.78200
C23         C  0.63252813  0.29231454  0.41214784     0.77200
C24         C  0.57194407  0.12986942  0.12585680     0.86600
C25         C  0.57858889  0.16888656  0.14855553    -0.53600
C26         C  0.60451301  0.17021535  0.16117923     0.09500
C27         C  0.62233202  0.13249546  0.14843852     0.20500
C28         C  0.59270383  0.13028243  0.09413900    -0.54400
C29         C  0.61925132  0.13139953  0.10552073     0.09600
C30         C  0.58118862  0.09201831  0.14971564    -0.53900
C31         C  0.60729432  0.09333494  0.16209137     0.10200
H32         H  0.56341693  0.19271300  0.15582322     0.14700
H33         H  0.64333853  0.13349058  0.15894481     0.00400
H34         H  0.58700709  0.12888852  0.06541876     0.15000
H35         H  0.56782123  0.06652209  0.15692378     0.14800
C36         C  0.68949564  0.12695436  0.05692460     0.86600
C37         C  0.66919037  0.12987551  0.08932731    -0.53600
C38         C  0.64241865  0.12947073  0.07870673     0.09500
C39         C  0.63875911  0.12670329  0.03600136     0.20500
C40         C  0.68146119  0.08741490  0.03537728    -0.54400
C41         C  0.65522166  0.08671258  0.52369901     0.09600
C42         C  0.68065702  0.16445981  0.03196755    -0.53900
C43         C  0.65490578  0.16320001  0.52065150     0.10200
H44         H  0.67574019  0.13259203  0.11784497     0.14700
H45         H  0.61809447  0.12623672  0.52475532     0.00400
H46         H  0.69595170  0.06156886  0.52734835     0.15000
H47         H  0.69360684  0.18985930  0.52445889     0.14800
Zn48       Zn  0.90691258  0.07510658  0.10631038     1.49700
Zn49       Zn  0.89935652  0.17556272  0.10337836     1.49400
Zn50       Zn  0.86206782  0.11814057  0.05316653     1.49100
Zn51       Zn  0.85412558  0.12150724  0.14189978     1.49500
O52         O  0.88055291  0.12226824  0.10128954    -1.84000
O53         O  0.94580451  0.09605744  0.10682418    -0.74700
O54         O  0.89117826  0.21074788  0.05838370    -0.74500
O55         O  0.87268540  0.06440252  0.52607532    -0.74000
O56         O  0.93958816  0.16546243  0.10406230    -0.74700
O57         O  0.90359517  0.03513594  0.06273761    -0.74300
O58         O  0.86947611  0.16889992  0.51991107    -0.74900
O59         O  0.81533173  0.12042134  0.12211164    -0.74200
O60         O  0.88874406  0.21068404  0.14750464    -0.75000
O61         O  0.82202513  0.11814633  0.06121111    -0.74400
O62         O  0.85752261  0.17268414  0.17550475    -0.74900
O63         O  0.86125124  0.07041321  0.17371544    -0.74800
O64         O  0.89937408  0.04086331  0.15268053    -0.74600
C65         C  0.95528398  0.13313211  0.10470751     0.77200
C66         C  0.87988748  0.20411588  0.02728192     0.77700
C67         C  0.88958275  0.03468758  0.03299193     0.76700
C68         C  0.80620814  0.11983510  0.08897661     0.77100
C69         C  0.87194618  0.20546243  0.17366859     0.78200
C70         C  0.87987501  0.04206126  0.17573827     0.77200
C71         C  0.93840830  0.36396563  0.38170191     0.86600
C72         C  0.92907421  0.32663362  0.40591551    -0.53600
C73         C  0.90319096  0.33070482  0.41839491     0.09500
C74         C  0.88867698  0.37155811  0.40612389     0.20500
C75         C  0.91701832  0.36713183  0.35089948    -0.54400
C76         C  0.89080856  0.37084647  0.36309573     0.09600
C77         C  0.93315660  0.40255087  0.40633838    -0.53900
C78         C  0.90743204  0.40666236  0.41956019     0.10200
H79         H  0.94135721  0.29960226  0.41438243     0.14700
H80         H  0.86802422  0.37435551  0.41768537     0.00400
H81         H  0.92275235  0.36541910  0.32202108     0.15000
H82         H  0.94908529  0.42382169  0.41432202     0.14800
C83         C  0.81956165  0.37863378  0.31776598     0.86600
C84         C  0.84068029  0.37404920  0.34894826    -0.53600
C85         C  0.86702067  0.37197626  0.33708012     0.09500
C86         C  0.86948497  0.37348835  0.29418847     0.20500
C87         C  0.82862420  0.41679706  0.29463341    -0.54400
C88         C  0.85485731  0.41494124  0.28323018     0.09600
C89         C  0.82520721  0.34142592  0.29170212    -0.53900
C90         C  0.85115530  0.33836449  0.27956321     0.10200
H91         H  0.83478101  0.37337335  0.37782084     0.14700
H92         H  0.89023091  0.37102257  0.28304394     0.00400
H93         H  0.81518566  0.44183607  0.28489574     0.15000
H94         H  0.80976735  0.31993067  0.28251142     0.14800
Zn95       Zn  0.40396338  0.08558405  0.09134225     1.49700
Zn96       Zn  0.35572307  0.13960362  0.05439865     1.49400
Zn97       Zn  0.36055333  0.13120515  0.14385004     1.49100
Zn98       Zn  0.40299105  0.18616309  0.09702226     1.49500
O99         O  0.38067165  0.13584681  0.09680027    -1.84000
O100        O  0.39614336  0.05403477  0.04464665    -0.74700
O101        O  0.31657113  0.13994216  0.07147499    -0.74500
O102        O  0.36979208  0.07644875  0.17151471    -0.74000
O103        O  0.36106227  0.08946655  0.02078631    -0.74700
O104        O  0.39843008  0.04488151  0.13318874    -0.74300
O105        O  0.32040988  0.13029827  0.13257553    -0.74900
O106        O  0.39578701  0.21931590  0.14340540    -0.74200
O107        O  0.36212125  0.19169066  0.02337908    -0.75000
O108        O  0.36840994  0.18089138  0.17811796    -0.74400
O109        O  0.39479237  0.22503313  0.05310543    -0.74900
O110        O  0.44291259  0.16982991  0.09785614    -0.74800
O111        O  0.44330648  0.09988990  0.09269923    -0.74600
C112        C  0.37785701  0.05844613  0.01999118     0.77200
C113        C  0.30602891  0.13433226  0.10328386     0.77700
C114        C  0.38503941  0.04496983  0.16321223     0.76700
C115        C  0.38246984  0.21373116  0.17313477     0.77100
C116        C  0.37801011  0.22258174  0.02632188     0.78200
C117        C  0.45556391  0.13446369  0.09625981     0.77200
C118        C  0.43874327  0.38185650  0.31619433     0.86600
C119        C  0.43121395  0.41677717  0.28790139    -0.53600
C120        C  0.40532409  0.41613593  0.27531812     0.09500
C121        C  0.38886566  0.38002879  0.29163483     0.20500
C122        C  0.41736127  0.38575520  0.34662086    -0.54400
C123        C  0.39107690  0.38449778  0.33436409     0.09600
C124        C  0.43182200  0.34108931  0.29527487    -0.53900
C125        C  0.40571466  0.34008888  0.28259396     0.10200
H126        H  0.44535096  0.43859550  0.27595743     0.14700
H127        H  0.36815621  0.37916902  0.27997174     0.00400
H128        H  0.42326766  0.38887003  0.37535620     0.15000
H129        H  0.44661916  0.31634472  0.28910978     0.14800
C130        C  0.31991799  0.38828091  0.38005904     0.86600
C131        C  0.34086958  0.38511667  0.34841195    -0.53600
C132        C  0.36735576  0.38622030  0.36018688     0.09500
C133        C  0.37006120  0.39010979  0.40289897     0.20500
C134        C  0.32814671  0.35196748  0.40630523    -0.54400
C135        C  0.35398968  0.35326545  0.41887743     0.09600
C136        C  0.32731696  0.42881557  0.40043741    -0.53900
C137        C  0.35344336  0.43020779  0.41241387     0.10200
H138        H  0.33542756  0.38239147  0.31958381     0.14700
H139        H  0.39091302  0.39047033  0.41387623     0.00400
H140        H  0.31433943  0.32770587  0.41512126     0.15000
H141        H  0.31242034  0.45342412  0.40647687     0.14800
Zn142      Zn  0.10942770  0.32838187  0.35029686     1.49700
Zn143      Zn  0.10268612  0.42975959  0.34769808     1.49400
Zn144      Zn  0.14931036  0.38544339  0.39667209     1.49100
Zn145      Zn  0.15204790  0.38174774  0.30662772     1.49500
O146        O  0.12839053  0.38165149  0.35034003    -1.84000
O147        O  0.06957899  0.33958216  0.34967469    -0.74700
O148        O  0.10645948  0.46613525  0.39333589    -0.74500
O149        O  0.14393337  0.33464545  0.43043576    -0.74000
O150        O  0.06382538  0.40911680  0.34718871    -0.74700
O151        O  0.11742086  0.29469451  0.39619058    -0.74300
O152        O  0.13959825  0.43766789  0.42716017    -0.74900
O153        O  0.19150934  0.38374661  0.32185496    -0.74200
O154        O  0.11002404  0.46729899  0.30275192    -0.75000
O155        O  0.18841327  0.38702714  0.38312606    -0.74400
O156        O  0.14394844  0.43282030  0.27514564    -0.74900
O157        O  0.14763134  0.32970538  0.27483076    -0.74800
O158        O  0.11923532  0.29087871  0.30734040    -0.74600
C159        C  0.05413613  0.37215639  0.34918522     0.77200
C160        C  0.12131447  0.46611505  0.42229833     0.77700
C161        C  0.13074479  0.30099790  0.42578511     0.76700
C162        C  0.20262920  0.38595350  0.35368123     0.77100
C163        C  0.12740722  0.46409055  0.27676568     0.78200
C164        C  0.13449487  0.29601129  0.27948207     0.77200
C165        C  0.07115492  0.14087800  0.07126580     0.86600
C166        C  0.07646574  0.10023632  0.04938248    -0.53600
C167        C  0.10203443  0.09512841  0.03550129     0.09500
C168        C  0.12071243  0.13174797  0.04622729     0.20500
C169        C  0.09284335  0.14048112  0.10166769    -0.54400
C170        C  0.11894017  0.13555320  0.08921437     0.09600
C171        C  0.08012572  0.17625150  0.04459275    -0.53900
C172        C  0.10589369  0.17158078  0.03172377     0.10200
H173        H  0.06058289  0.07785670  0.04420025     0.14700
H174        H  0.14134486  0.12870844  0.03474050     0.00400
H175        H  0.08738670  0.14449700  0.13047183     0.15000
H176        H  0.06792235  0.20309511  0.03571238     0.14800
C177        C  0.19029657  0.12654149  0.13455886     0.86600
C178        C  0.16918109  0.13243617  0.10333715    -0.53600
C179        C  0.14279660  0.13410271  0.11510778     0.09500
C180        C  0.14021488  0.13115661  0.15786652     0.20500
C181        C  0.18444898  0.16268513  0.16175069    -0.54400
C182        C  0.15839580  0.16540010  0.17357224     0.09600
C183        C  0.18087960  0.08706963  0.15609177    -0.53900
C184        C  0.15476017  0.08965783  0.16820038     0.10200
H185        H  0.17505149  0.13459119  0.07450481     0.14700
H186        H  0.11948017  0.13301985  0.16920331     0.00400
H187        H  0.19983846  0.18389351  0.17162987     0.15000
H188        H  0.19359008  0.06037501  0.16400220     0.14800
C189        C  0.13805983  0.26123409  0.25287819    -0.00100
C190        C  0.15342854  0.22566577  0.26387323    -0.11900
C191        C  0.15944480  0.19341123  0.23866731     0.02200
C192        C  0.14969100  0.19633300  0.20191243    -0.00100
C193        C  0.13312747  0.23081564  0.19141433    -0.11900
C194        C  0.12736077  0.26337823  0.21660479     0.02100
H195        H  0.16138991  0.22368452  0.29191850     0.15000
H196        H  0.12541898  0.23290166  0.16324875     0.15000
C197        C  0.11033596  0.29850262  0.20486988     0.36700
C198        C  0.17579503  0.15770967  0.25097451     0.36600
N199        N  0.09654894  0.32657631  0.19560542    -0.43600
N200        N  0.18877049  0.12891834  0.26070845    -0.43600
C201        C  0.14312268  0.05752211  0.19330705    -0.00100
C202        C  0.13279050  0.07030941  0.22778468    -0.11900
C203        C  0.12617876  0.04058392  0.25507200     0.02200
C204        C  0.12941022  0.49736268  0.24781459    -0.00100
C205        C  0.13739920  0.48515707  0.21198098    -0.11900
C206        C  0.14448827  0.01417086  0.18495700     0.02100
H207        H  0.13137524  0.10361360  0.23425967     0.15000
H208        H  0.13910572  0.45192452  0.20520150     0.15000
C209        C  0.15275628  0.99938876  0.14882475     0.36700
C210        C  0.11841982  0.05585736  0.29125334     0.36600
N211        N  0.15803525  0.48901608  0.11948402    -0.43600
N212        N  0.11235979  0.06839471  0.32022035    -0.43600
C213        C  0.12994548  0.26835067  0.45523415    -0.00100
C214        C  0.13120045  0.22583793  0.44468632    -0.11900
C215        C  0.12572787  0.19356560  0.47001643     0.02200
C216        C  0.11770302  0.20344210  0.00646057    -0.00100
C217        C  0.11790863  0.24574997  0.01794032    -0.11900
C218        C  0.12402715  0.27825972  0.99301660     0.02100
H219        H  0.13558993  0.21787180  0.41606158     0.15000
H220        H  0.11217342  0.25353608  0.04614641     0.15000
C221        C  0.12242320  0.32128092  0.00585182     0.36700
C222        C  0.12649265  0.15089938  0.45648109     0.36600
N223        N  0.12117218  0.35576597  0.01615517    -0.43600
N224        N  0.12765630  0.11738695  0.44401274    -0.43600
C225        C  0.11669690  0.49936701  0.45111947    -0.00100
C226        C  0.13734488  0.00964043  0.47710496    -0.11900
C227        C  0.13358907  0.04007936  0.00397916     0.02200
C228        C  0.10829102  0.06155873  0.00719961    -0.00100
C229        C  0.08776670  0.05155041  0.98173923    -0.11900
C230        C  0.09182234  0.02313544  0.45425202     0.02100
H231        H  0.15682357  0.49279370  0.47457690     0.15000
H232        H  0.06845447  0.06832445  0.98258670     0.15000
C233        C  0.06921047  0.01562631  0.42984762     0.36700
C234        C  0.15583445  0.04811959  0.02874456     0.36600
N235        N  0.05039090  0.50540759  0.41180876    -0.43600
N236        N  0.17411343  0.05405697  0.04801045    -0.43600
C237        C  0.28951152  0.38790211  0.37132263    -0.00100
C238        C  0.27920372  0.38628642  0.33479235    -0.11900
C239        C  0.25115768  0.38608733  0.32779055     0.02200
C240        C  0.23265143  0.38704297  0.35775175    -0.00100
C241        C  0.24302389  0.38909765  0.39389767    -0.11900
C242        C  0.27063789  0.38990345  0.40089766     0.02100
H243        H  0.29263059  0.38557232  0.31128054     0.15000
H244        H  0.22944772  0.39030223  0.41745137     0.15000
C245        C  0.27870007  0.39325055  0.43934194     0.36700
C246        C  0.24225770  0.38541951  0.28959758     0.36600
N247        N  0.28479024  0.39614272  0.47021565    -0.43600
N248        N  0.23533474  0.38507327  0.25889922    -0.43600
C249        C  0.27638320  0.13057234  0.10651822    -0.00100
C250        C  0.25926248  0.16511655  0.09836950    -0.11900
C251        C  0.23134019  0.16352506  0.10537950     0.02200
C252        C  0.21992535  0.12661487  0.12100384    -0.00100
C253        C  0.23719242  0.09086021  0.12549521    -0.11900
C254        C  0.26504072  0.09285347  0.11906246     0.02100
H255        H  0.26786955  0.19397156  0.08786855     0.15000
H256        H  0.22958959  0.06089565  0.13428927     0.15000
C257        C  0.28170299  0.05550340  0.12541137     0.36700
C258        C  0.21514817  0.20101456  0.09764305     0.36600
N259        N  0.29509286  0.02564137  0.13043853    -0.43600
N260        N  0.20223959  0.23117256  0.09169674    -0.43600
C261        C  0.36437151  0.32221396  0.44663141    -0.00100
C262        C  0.37355942  0.28252197  0.43439301    -0.11900
C263        C  0.37902033  0.24968757  0.45977739     0.02200
C264        C  0.37596691  0.25708509  0.99863994    -0.00100
C265        C  0.36786289  0.29736666  0.01061614    -0.11900
C266        C  0.36135668  0.32940446  0.98499096     0.02100
H267        H  0.37526842  0.27664383  0.40487028     0.15000
H268        H  0.36484431  0.30296300  0.03999091     0.15000
C269        C  0.34939816  0.36809659  0.99882538     0.36700
C270        C  0.38707579  0.20876720  0.44578482     0.36600
N271        N  0.33959973  0.39867165  0.01055072    -0.43600
N272        N  0.39345670  0.17592919  0.43455463    -0.43600
C273        C  0.37541219  0.02654371  0.99016029    -0.00100
C274        C  0.36133050  0.03712292  0.45755136    -0.11900
C275        C  0.35508859  0.50771520  0.43083259     0.02200
C276        C  0.36355098  0.46514672  0.43592154    -0.00100
C277        C  0.38019271  0.45421870  0.96631781    -0.11900
C278        C  0.38570129  0.48393218  0.99373316     0.02100
H279        H  0.35419980  0.06941012  0.45355463     0.15000
H280        H  0.38732547  0.42201694  0.97038402     0.15000
C281        C  0.39994745  0.46915763  0.02646835     0.36700
C282        C  0.34037515  0.52203753  0.39833683     0.36600
N283        N  0.41120466  0.45673536  0.05263082    -0.43600
N284        N  0.32894047  0.03364023  0.37219218    -0.43600
C285        C  0.39634896  0.44469442  0.24470785    -0.00100
C286        C  0.41136044  0.44419251  0.21185859    -0.11900
C287        C  0.40770036  0.47551126  0.18478739     0.02200
C288        C  0.38781640  0.00824481  0.18931877    -0.00100
C289        C  0.37150573  0.00694695  0.22134277    -0.11900
C290        C  0.37609932  0.47597886  0.24948394     0.02100
H291        H  0.42697582  0.42002534  0.20810573     0.15000
H292        H  0.35620385  0.03134441  0.22587391     0.15000
C293        C  0.36033720  0.47776612  0.28301763     0.36700
C294        C  0.42550325  0.47356625  0.15313408     0.36600
N295        N  0.34775189  0.47900482  0.30997758    -0.43600
N296        N  0.44004351  0.47182561  0.12807791    -0.43600
C297        C  0.38417318  0.24627469  0.20244694    -0.00100
C298        C  0.38915100  0.23409811  0.23943782    -0.11900
C299        C  0.39528453  0.26426756  0.26649508     0.02200
C300        C  0.39624327  0.30731284  0.25663814    -0.00100
C301        C  0.38933415  0.31965651  0.22041779    -0.11900
C302        C  0.38343324  0.28968775  0.19337276     0.02100
H303        H  0.38936984  0.20092612  0.24687136     0.15000
H304        H  0.38949280  0.35278178  0.21285410     0.15000
C305        C  0.37660811  0.30434466  0.15645159     0.36700
C306        C  0.40018828  0.25052955  0.30418811     0.36600
N307        N  0.37106356  0.31604866  0.12688675    -0.43600
N308        N  0.40383936  0.23949850  0.33446543    -0.43600
C309        C  0.96779900  0.36268818  0.36744977    -0.00100
C310        C  0.98549541  0.32844221  0.37555488    -0.11900
C311        C  0.01326820  0.33021753  0.36881156     0.02200
C312        C  0.02436232  0.36680214  0.35272500    -0.00100
C313        C  0.00658716  0.39956310  0.34151172    -0.11900
C314        C  0.97866090  0.39752271  0.34799476     0.02100
H315        H  0.97830947  0.29977421  0.38798898     0.15000
H316        H  0.01455937  0.42726157  0.32797152     0.15000
C317        C  0.96169625  0.43209537  0.33475122     0.36700
C318        C  0.02981485  0.29449302  0.38075222     0.36600
N319        N  0.94809677  0.45960212  0.32379451    -0.43600
N320        N  0.04291757  0.26579909  0.39041569    -0.43600
C321        C  0.86659703  0.44898272  0.26000278    -0.00100
C322        C  0.88270186  0.43823976  0.22932816    -0.11900
C323        C  0.88877816  0.46836631  0.20212998     0.02200
C324        C  0.87814680  0.00994537  0.20568499    -0.00100
C325        C  0.86444807  0.02123391  0.23829806    -0.11900
C326        C  0.85963713  0.49195992  0.26573747     0.02100
H327        H  0.88906810  0.40573330  0.22514676     0.15000
H328        H  0.85775981  0.05367516  0.24240635     0.15000
C329        C  0.84641876  0.50651129  0.29913990     0.36700
C330        C  0.90331238  0.45439841  0.16962371     0.36600
N331        N  0.83573511  0.51843167  0.32572495    -0.43600
N332        N  0.91497667  0.44298700  0.14364115    -0.43600
C333        C  0.86845476  0.23927788  0.20150429    -0.00100
C334        C  0.86270104  0.28040107  0.18886158    -0.11900
C335        C  0.85742318  0.31321118  0.21385001     0.02200
C336        C  0.85937659  0.30565929  0.25236481    -0.00100
C337        C  0.86565387  0.26471386  0.26510763    -0.11900
C338        C  0.86989498  0.23145146  0.24004472     0.02100
H339        H  0.86100380  0.28645737  0.15929487     0.15000
H340        H  0.86642981  0.25851901  0.29470124     0.15000
C341        C  0.87587003  0.18974096  0.25445307     0.36700
C342        C  0.84788378  0.35327592  0.19921819     0.36600
N343        N  0.88064211  0.15629672  0.26601298    -0.43600
N344        N  0.83981460  0.38494675  0.18702815    -0.43600
C345        C  0.90079202  0.43719964  0.44980797    -0.00100
C346        C  0.91895445  0.44012722  0.47969476    -0.11900
C347        C  0.91535649  0.47029787  0.50756745     0.02200
C348        C  0.89255009  0.99856420  0.50669625    -0.00100
C349        C  0.87405195  0.99530689  0.47696429    -0.11900
C350        C  0.87774709  0.46413284  0.44914627     0.02100
H351        H  0.93634446  0.41872953  0.48115904     0.15000
H352        H  0.85704558  0.01733959  0.47484995     0.15000
C353        C  0.85786378  0.96299985  0.41961731     0.36700
C354        C  0.93289316  0.46678746  0.03968101     0.36600
N355        N  0.84194417  0.96187889  0.39607257    -0.43600
N356        N  0.94821254  0.46531326  0.06402077    -0.43600
C357        C  0.88091391  0.23778887  0.49837131    -0.00100
C358        C  0.88340562  0.22655246  0.46086092    -0.11900
C359        C  0.88884463  0.25705947  0.43381485     0.02200
C360        C  0.89166642  0.29952605  0.44415179    -0.00100
C361        C  0.88674965  0.31143474  0.48087062    -0.11900
C362        C  0.88135597  0.28104489  0.50800119     0.02100
H363        H  0.88251624  0.19368793  0.45289276     0.15000
H364        H  0.88847304  0.34425765  0.48871451     0.15000
C365        C  0.87546990  0.29522251  0.04541135     0.36700
C366        C  0.89200488  0.24420791  0.39567645     0.36600
N367        N  0.87121165  0.30655481  0.07533769    -0.43600
N368        N  0.89446867  0.23429224  0.36500650    -0.43600
C369        C  0.98507530  0.13886833  0.10099896    -0.00100
C370        C  0.00322735  0.10783443  0.11468567    -0.11900
C371        C  0.03118766  0.11000411  0.10802500     0.02200
C372        C  0.04172213  0.14300427  0.08584122    -0.00100
C373        C  0.02356664  0.17577629  0.07506061    -0.11900
C374        C  0.99579052  0.17395528  0.08212925     0.02100
H375        H  0.99552355  0.08139539  0.13030627     0.15000
H376        H  0.03028660  0.20300601  0.06011649     0.15000
C377        C  0.97875562  0.20773694  0.06742364     0.36700
C378        C  0.04852584  0.07734459  0.12386927     0.36600
N379        N  0.96521473  0.23483327  0.05556733    -0.43600
N380        N  0.06244476  0.05142837  0.13688297    -0.43600
C381        C  0.71985418  0.12567867  0.06710301    -0.00100
C382        C  0.73843473  0.14715608  0.04450820    -0.11900
C383        C  0.76613235  0.14645181  0.05192197     0.02200
C384        C  0.77662175  0.12246038  0.08187206    -0.00100
C385        C  0.75868769  0.09930293  0.10370211    -0.11900
C386        C  0.73072829  0.09969635  0.09595100     0.02100
H387        H  0.73200010  0.16351799  0.01962099     0.15000
H388        H  0.76666802  0.07951256  0.12595428     0.15000
C389        C  0.71405992  0.07120383  0.11666388     0.36700
C390        C  0.78326179  0.17129982  0.02824156     0.36600
N391        N  0.70071298  0.04814848  0.13307127    -0.43600
N392        N  0.79690838  0.19029784  0.50853957    -0.43600
C393        C  0.54149038  0.12909128  0.11678486    -0.00100
C394        C  0.53148570  0.13058490  0.07996144    -0.11900
C395        C  0.50356249  0.13238887  0.07251806     0.02200
C396        C  0.48502522  0.13295594  0.10196487    -0.00100
C397        C  0.49454998  0.13071946  0.13838742    -0.11900
C398        C  0.52223727  0.12866930  0.14610491     0.02100
H399        H  0.54493403  0.13090530  0.05653122     0.15000
H400        H  0.48016604  0.13056983  0.16106564     0.15000
C401        C  0.53010135  0.12651608  0.18474980     0.36700
C402        C  0.49433815  0.13408510  0.03449516     0.36600
N403        N  0.53628557  0.12462888  0.21571029    -0.43600
N404        N  0.48693033  0.13546650  0.00402369    -0.43600
C405        C  0.73330524  0.38301735  0.34252976    -0.00100
C406        C  0.74862551  0.34587305  0.34928654    -0.11900
C407        C  0.77679521  0.34473395  0.34472798     0.02200
C408        C  0.79020564  0.38092798  0.33165123    -0.00100
C409        C  0.77523084  0.41922585  0.33021141    -0.11900
C410        C  0.74718077  0.42047410  0.33447252     0.02100
H411        H  0.73854130  0.31730329  0.35753975     0.15000
H412        H  0.78503611  0.44880730  0.32533073     0.15000
C413        C  0.73337473  0.46051869  0.32821883     0.36700
C414        C  0.79128552  0.30580862  0.35316977     0.36600
N415        N  0.72246461  0.49264281  0.32293610    -0.43600
N416        N  0.80290586  0.27465226  0.35997485    -0.43600
C417        C  0.64407806  0.05375579  0.49918351    -0.00100
C418        C  0.63412737  0.06563241  0.46413058    -0.11900
C419        C  0.62760456  0.03522778  0.43772885     0.02200
C420        C  0.63005062  0.49225888  0.44764233    -0.00100
C421        C  0.63815707  0.48042446  0.48365317    -0.11900
C422        C  0.64479619  0.01067940  0.50912102     0.02100
H423        H  0.63256230  0.09866562  0.45671937     0.15000
H424        H  0.64032076  0.44726304  0.49076321     0.15000
C425        C  0.65411961  0.99756798  0.04618343     0.36700
C426        C  0.61893364  0.04918528  0.40129072     0.36600
N427        N  0.66112226  0.98708040  0.07552544    -0.43600
N428        N  0.61206562  0.06022774  0.37203642    -0.43600
C429        C  0.64463872  0.19388404  0.49302870    -0.00100
C430        C  0.65017540  0.18591753  0.45567809    -0.11900
C431        C  0.64499088  0.21659615  0.42856796     0.02200
C432        C  0.63490614  0.25692858  0.43903125    -0.00100
C433        C  0.62839931  0.26419707  0.47648655    -0.11900
C434        C  0.63322846  0.23299801  0.50347212     0.02100
H435        H  0.65958783  0.15612178  0.44780713     0.15000
H436        H  0.62054993  0.29482179  0.48499274     0.15000
C437        C  0.62593660  0.24205369  0.04091064     0.36700
C438        C  0.65019402  0.20548407  0.39038069     0.36600
N439        N  0.62086324  0.24948674  0.07152975    -0.43600
N440        N  0.65427942  0.19636134  0.35983047    -0.43600
C441        C  0.62751997  0.49306176  0.23946174    -0.00100
C442        C  0.63543977  0.03472309  0.24689025    -0.11900
C443        C  0.63126431  0.06762308  0.22115609     0.02200
C444        C  0.61867771  0.05940339  0.18673570    -0.00100
C445        C  0.61347266  0.01739596  0.17744283    -0.11900
C446        C  0.61794189  0.48388580  0.20343896     0.02100
H447        H  0.64366244  0.04190299  0.27400985     0.15000
H448        H  0.60489046  0.01038972  0.15048578     0.15000
C449        C  0.61221742  0.44142905  0.19195439     0.36700
C450        C  0.63899509  0.10938338  0.23199124     0.36600
N451        N  0.60769420  0.40741009  0.18267911    -0.43600
N452        N  0.64591961  0.14221640  0.24156369    -0.43600
C453        C  0.61200994  0.20116624  0.19009934    -0.00100
C454        C  0.59455489  0.20611272  0.22055100    -0.11900
C455        C  0.59915424  0.23641565  0.24762321     0.02200
C456        C  0.62160080  0.26272259  0.24462541    -0.00100
C457        C  0.63980739  0.25688228  0.21519118    -0.11900
C458        C  0.63517492  0.22629230  0.18789225     0.02100
H459        H  0.57715286  0.18611051  0.22321579     0.15000
H460        H  0.65719552  0.27699559  0.21298859     0.15000
C461        C  0.65378505  0.22264572  0.15731243     0.36700
C462        C  0.58084078  0.23934845  0.27870455     0.36600
N463        N  0.66888083  0.22008522  0.13293621    -0.43600
N464        N  0.56626807  0.24142834  0.30371081    -0.43600
C465        C  0.52388943  0.38438043  0.34847708    -0.00100
C466        C  0.50852921  0.34920410  0.35768235    -0.11900
C467        C  0.48059247  0.34888869  0.35007120     0.02200
C468        C  0.46792389  0.38350740  0.33128153    -0.00100
C469        C  0.48299865  0.42064249  0.32743983    -0.11900
C470        C  0.51065607  0.42102936  0.33522095     0.02100
H471        H  0.51848846  0.32148864  0.36958668     0.15000
H472        H  0.47353702  0.44999539  0.31860728     0.15000
C473        C  0.52515232  0.45962326  0.32960096     0.36700
C474        C  0.46547585  0.31296481  0.36222147     0.36600
N475        N  0.53680779  0.49052319  0.32538394    -0.43600
N476        N  0.45333885  0.28439822  0.37245557    -0.43600
Zn477      Zn  0.60670923  0.37605440  0.88954153     1.49700
Zn478      Zn  0.60420221  0.38058190  0.80055785     1.49400
Zn479      Zn  0.64952269  0.42967869  0.84317862     1.49100
Zn480      Zn  0.65221583  0.32929441  0.83890090     1.49500
O481        O  0.62806992  0.37882917  0.84335098    -1.84000
O482        O  0.56628152  0.37611766  0.87825828    -0.74700
O483        O  0.61217222  0.42985364  0.76705322    -0.74500
O484        O  0.64141961  0.46478485  0.88795420    -0.74000
O485        O  0.56564161  0.38537856  0.81697945    -0.74700
O486        O  0.61464650  0.42603386  0.92328189    -0.74300
O487        O  0.64326147  0.46562491  0.79722001    -0.74900
O488        O  0.69145239  0.34503346  0.83891575    -0.74200
O489        O  0.60764010  0.32732826  0.77062804    -0.75000
O490        O  0.68906001  0.41443631  0.84507302    -0.74400
O491        O  0.64430535  0.29450722  0.79334054    -0.74900
O492        O  0.64694324  0.29128313  0.88248688    -0.74800
O493        O  0.61581827  0.32254203  0.91772612    -0.74600
C494        C  0.55347115  0.38155720  0.84782029     0.77200
C495        C  0.62790997  0.46103228  0.76914860     0.77700
C496        C  0.62827620  0.45919501  0.91779688     0.76700
C497        C  0.70292762  0.38036692  0.84229101     0.77100
C498        C  0.62480637  0.29687189  0.77026541     0.78200
C499        C  0.63212058  0.29183449  0.91125508     0.77200
C500        C  0.57209112  0.12820586  0.62525399     0.86600
C501        C  0.57855198  0.16747476  0.64770602    -0.53600
C502        C  0.60442154  0.16913269  0.66049905     0.09500
C503        C  0.62240587  0.13145415  0.64801837     0.20500
C504        C  0.59289681  0.12854722  0.59360943    -0.54400
C505        C  0.61941653  0.13002917  0.60508110     0.09600
C506        C  0.58141073  0.09062308  0.64934666    -0.53900
C507        C  0.60747342  0.09224990  0.66181314     0.10200
H508        H  0.56327496  0.19126468  0.65466000     0.14700
H509        H  0.64338361  0.13266742  0.65859634     0.00400
H510        H  0.58724377  0.12679493  0.56488850     0.15000
H511        H  0.56811429  0.06506502  0.65663935     0.14800
C512        C  0.68974125  0.12586887  0.55665145     0.86600
C513        C  0.66939423  0.12840305  0.58903942    -0.53600
C514        C  0.64263050  0.12826056  0.57833494     0.09500
C515        C  0.63902374  0.12607828  0.53559036     0.20500
C516        C  0.68166928  0.08663164  0.53468287    -0.54400
C517        C  0.65501233  0.08725423  0.02444627     0.09600
C518        C  0.68097058  0.16375355  0.53210116    -0.53900
C519        C  0.65456795  0.16366651  0.02061415     0.10200
H520        H  0.67589478  0.13068564  0.61760863     0.14700
H521        H  0.61781472  0.12660973  0.02523519     0.00400
H522        H  0.69579751  0.06237480  0.02817148     0.15000
H523        H  0.69322775  0.19049765  0.02397054     0.14800
Zn524      Zn  0.90738623  0.07532073  0.60622605     1.49700
Zn525      Zn  0.89969258  0.17564668  0.60322289     1.49400
Zn526      Zn  0.86237682  0.11829567  0.55312652     1.49100
Zn527      Zn  0.85446474  0.12139283  0.64173528     1.49500
O528        O  0.88092444  0.12234787  0.60118566    -1.84000
O529        O  0.94628855  0.09640982  0.60656621    -0.74700
O530        O  0.89158482  0.21066541  0.55815251    -0.74500
O531        O  0.87270870  0.06456658  0.02567733    -0.74000
O532        O  0.93992819  0.16579596  0.60414239    -0.74700
O533        O  0.90372318  0.03504131  0.56294574    -0.74300
O534        O  0.86906599  0.16892299  0.02018434    -0.74900
O535        O  0.81560354  0.12002699  0.62204298    -0.74200
O536        O  0.88897579  0.21074277  0.64725813    -0.75000
O537        O  0.82234805  0.11842778  0.56116388    -0.74400
O538        O  0.85781740  0.17257542  0.67523547    -0.74900
O539        O  0.86181363  0.07047753  0.67368061    -0.74800
O540        O  0.90008259  0.04127069  0.65277597    -0.74600
C541        C  0.95569373  0.13355607  0.60470188     0.77200
C542        C  0.88031531  0.20407854  0.52703150     0.77700
C543        C  0.88943347  0.03437963  0.53345258     0.76700
C544        C  0.80649295  0.11971434  0.58889137     0.77100
C545        C  0.87219919  0.20539474  0.67342127     0.78200
C546        C  0.88058087  0.04236937  0.67582703     0.77200
C547        C  0.93797246  0.36454761  0.88223474     0.86600
C548        C  0.92870810  0.32687033  0.90611564    -0.53600
C549        C  0.90275873  0.33056279  0.91844955     0.09500
C550        C  0.88812181  0.37136084  0.90633402     0.20500
C551        C  0.91668828  0.36785360  0.85128998    -0.54400
C552        C  0.89041678  0.37107119  0.86332584     0.09600
C553        C  0.93247259  0.40277819  0.90718271    -0.53900
C554        C  0.90667480  0.40648184  0.92015251     0.10200
H555        H  0.94114149  0.30004487  0.91466888     0.14700
H556        H  0.86742698  0.37392294  0.91779433     0.00400
H557        H  0.92253259  0.36657392  0.82243419     0.15000
H558        H  0.94827664  0.42404903  0.91563122     0.14800
C559        C  0.81924866  0.37748712  0.81770496     0.86600
C560        C  0.84032874  0.37358725  0.84896563    -0.53600
C561        C  0.86669713  0.37186505  0.83719126     0.09500
C562        C  0.86922995  0.37310141  0.79429140     0.20500
C563        C  0.82803157  0.41559902  0.79430677    -0.54400
C564        C  0.85429219  0.41419186  0.78302088     0.09600
C565        C  0.82521094  0.34016904  0.79189898    -0.53900
C566        C  0.85119033  0.33751821  0.77982873     0.10200
H567        H  0.83436711  0.37309487  0.87781533     0.14700
H568        H  0.89001197  0.37093772  0.78322588     0.00400
H569        H  0.81436902  0.44024824  0.78434913     0.15000
H570        H  0.80993554  0.31841616  0.78266726     0.14800
Zn571      Zn  0.40396352  0.08484850  0.59128561     1.49700
Zn572      Zn  0.35595038  0.13916622  0.55401027     1.49400
Zn573      Zn  0.36089383  0.13116722  0.64358068     1.49100
Zn574      Zn  0.40345427  0.18550400  0.59623389     1.49500
O575        O  0.38092228  0.13539951  0.59641069    -1.84000
O576        O  0.39606965  0.05313554  0.54472965    -0.74700
O577        O  0.31681608  0.13951672  0.57124318    -0.74500
O578        O  0.37022065  0.07678432  0.67196359    -0.74000
O579        O  0.36131821  0.08898300  0.52043110    -0.74700
O580        O  0.39841146  0.04458106  0.63345002    -0.74300
O581        O  0.32075708  0.13019494  0.63237896    -0.74900
O582        O  0.39643420  0.21906169  0.64243253    -0.74200
O583        O  0.36225032  0.19132722  0.52292383    -0.75000
O584        O  0.36872889  0.18130891  0.67721888    -0.74400
O585        O  0.39523755  0.22432929  0.55227308    -0.74900
O586        O  0.44331251  0.16874633  0.59700089    -0.74800
O587        O  0.44333203  0.09874943  0.59251071    -0.74600
C588        C  0.37795913  0.05774905  0.51985818     0.77200
C589        C  0.30632865  0.13411015  0.60312082     0.77700
C590        C  0.38531541  0.04510359  0.66371514     0.76700
C591        C  0.38295794  0.21393361  0.67209098     0.77100
C592        C  0.37825744  0.22209488  0.52570637     0.78200
C593        C  0.45577150  0.13319676  0.59571301     0.77200
C594        C  0.43849059  0.38210461  0.81542587     0.86600
C595        C  0.43077446  0.41706576  0.78726836    -0.53600
C596        C  0.40486489  0.41619591  0.77476470     0.09500
C597        C  0.38855802  0.37993627  0.79110294     0.20500
C598        C  0.41717917  0.38574136  0.84596280    -0.54400
C599        C  0.39086673  0.38431424  0.83384350     0.09600
C600        C  0.43165773  0.34137456  0.79442640    -0.53900
C601        C  0.40553796  0.34021182  0.78186547     0.10200
H602        H  0.44480749  0.43898599  0.77524462     0.14700
H603        H  0.36782130  0.37890800  0.77953930     0.00400
H604        H  0.42315842  0.38885003  0.87466891     0.15000
H605        H  0.44653078  0.31680338  0.78807012     0.14800
C606        C  0.31985386  0.38787065  0.88006492     0.86600
C607        C  0.34068745  0.38479716  0.84824299    -0.53600
C608        C  0.36722392  0.38587777  0.85983082     0.09500
C609        C  0.37008864  0.38965248  0.90254413     0.20500
C610        C  0.32819961  0.35146802  0.90614727    -0.54400
C611        C  0.35406897  0.35280508  0.91860113     0.09600
C612        C  0.32733065  0.42833046  0.90050466    -0.53900
C613        C  0.35351439  0.42969839  0.91224842     0.10200
H614        H  0.33513659  0.38210271  0.81944333     0.14700
H615        H  0.39097157  0.39000465  0.91341260     0.00400
H616        H  0.31442786  0.32720155  0.91505852     0.15000
H617        H  0.31246364  0.45292331  0.90673969     0.14800
Zn618      Zn  0.10905694  0.32915136  0.85090133     1.49700
Zn619      Zn  0.10249271  0.43055544  0.84815833     1.49400
Zn620      Zn  0.14901647  0.38606786  0.89744462     1.49100
Zn621      Zn  0.15188337  0.38222468  0.80747907     1.49500
O622        O  0.12812514  0.38232860  0.85105492    -1.84000
O623        O  0.06920629  0.34056328  0.85040016    -0.74700
O624        O  0.10640188  0.46730974  0.89359203    -0.74500
O625        O  0.14353295  0.33516805  0.93118837    -0.74000
O626        O  0.06356237  0.41010262  0.84790372    -0.74700
O627        O  0.11706032  0.29538189  0.89671578    -0.74300
O628        O  0.13922131  0.43841719  0.92774305    -0.74900
O629        O  0.19126624  0.38426486  0.82276257    -0.74200
O630        O  0.10983502  0.46756280  0.80283155    -0.75000
O631        O  0.18823192  0.38763725  0.88403278    -0.74400
O632        O  0.14387131  0.43291469  0.77565087    -0.74900
O633        O  0.14758327  0.33020331  0.77581732    -0.74800
O634        O  0.11884397  0.29157746  0.80790920    -0.74600
C635        C  0.05380365  0.37318879  0.84995176     0.77200
C636        C  0.12114999  0.46715877  0.92266580     0.77700
C637        C  0.13035711  0.30152517  0.92635933     0.76700
C638        C  0.20242170  0.38648966  0.85455156     0.77100
C639        C  0.12727325  0.46411362  0.77692724     0.78200
C640        C  0.13431098  0.29662575  0.78024747     0.77200
C641        C  0.07157784  0.14181016  0.57196589     0.86600
C642        C  0.07680454  0.10105621  0.55020914    -0.53600
C643        C  0.10235144  0.09580603  0.53634403     0.09500
C644        C  0.12111203  0.13235032  0.54693118     0.20500
C645        C  0.09327072  0.14149385  0.60235309    -0.54400
C646        C  0.11935189  0.13637426  0.58991348     0.09600
C647        C  0.08059800  0.17702786  0.54515211    -0.53900
C648        C  0.10635644  0.17215954  0.53224737     0.10200
H649        H  0.06086823  0.07878913  0.54492936     0.14700
H650        H  0.14173883  0.12908549  0.53544262     0.00400
H651        H  0.08783052  0.14570547  0.63114165     0.15000
H652        H  0.06841076  0.20385438  0.53617720     0.14800
C653        C  0.19067980  0.12723023  0.63531067     0.86600
C654        C  0.16957396  0.13307110  0.60407223    -0.53600
C655        C  0.14319483  0.13490542  0.61583222     0.09500
C656        C  0.14060112  0.13210059  0.65860579     0.20500
C657        C  0.18488797  0.16350218  0.66241845    -0.54400
C658        C  0.15883107  0.16633582  0.67422731     0.09600
C659        C  0.18119656  0.08786148  0.65694367    -0.53900
C660        C  0.15507259  0.09057622  0.66903102     0.10200
H661        H  0.17544483  0.13500626  0.57522471     0.14700
H662        H  0.11986531  0.13406574  0.66993056     0.00400
H663        H  0.20030393  0.18469969  0.67223392     0.15000
H664        H  0.19383638  0.06107398  0.66481548     0.14800
C665        C  0.13796286  0.26194944  0.75356284    -0.00100
C666        C  0.15273837  0.22589456  0.76483174    -0.11900
C667        C  0.15906187  0.19385756  0.73953600     0.02200
C668        C  0.15009788  0.19740107  0.70244402    -0.00100
C669        C  0.13418948  0.23247232  0.69158024    -0.11900
C670        C  0.12821973  0.26488868  0.71682660     0.02100
H671        H  0.16008363  0.22341441  0.79316314     0.15000
H672        H  0.12714085  0.23509303  0.66312415     0.15000
C673        C  0.11198179  0.30071482  0.70466062     0.36700
C674        C  0.17500920  0.15783884  0.75209034     0.36600
N675        N  0.09884214  0.32938124  0.69505966    -0.43600
N676        N  0.18768137  0.12882926  0.76205945    -0.43600
C677        C  0.14328166  0.05830460  0.69388035    -0.00100
C678        C  0.13294734  0.07076413  0.72844969    -0.11900
C679        C  0.12631459  0.04076480  0.75551229     0.02200
C680        C  0.12929867  0.49703108  0.74768286    -0.00100
C681        C  0.13741452  0.48444772  0.71199207    -0.11900
C682        C  0.14448321  0.01505352  0.68514546     0.02100
H683        H  0.13151546  0.10399997  0.73515370     0.15000
H684        H  0.13922193  0.45114303  0.70552082     0.15000
C685        C  0.15249840  0.00064190  0.64880256     0.36700
C686        C  0.11852540  0.05568859  0.79179692     0.36600
N687        N  0.15862261  0.48740194  0.61967232    -0.43600
N688        N  0.11242894  0.06797205  0.82083450    -0.43600
C689        C  0.12956060  0.26862428  0.95559866    -0.00100
C690        C  0.13094924  0.22619572  0.94475862    -0.11900
C691        C  0.12539394  0.19366431  0.96979980     0.02200
C692        C  0.11816923  0.20370506  0.50666699    -0.00100
C693        C  0.11851779  0.24611175  0.51783842    -0.11900
C694        C  0.12463114  0.27835001  0.49263865     0.02100
H695        H  0.13545161  0.21850640  0.91610926     0.15000
H696        H  0.11292521  0.25418889  0.54603452     0.15000
C697        C  0.12329893  0.32148775  0.50520784     0.36700
C698        C  0.12607906  0.15110589  0.95597484     0.36600
N699        N  0.12229229  0.35607787  0.51526901    -0.43600
N700        N  0.12708916  0.11762043  0.94343006    -0.43600
C701        C  0.11666795  0.50055395  0.95142396    -0.00100
C702        C  0.13750086  0.00925546  0.97627609    -0.11900
C703        C  0.13353772  0.04033397  0.50493313     0.02200
C704        C  0.10845484  0.06242372  0.50787537    -0.00100
C705        C  0.08807137  0.05338220  0.48191609    -0.11900
C706        C  0.09156259  0.02095103  0.95439940     0.02100
H707        H  0.15645053  0.49247938  0.97573237     0.15000
H708        H  0.06896378  0.07075853  0.48259441     0.15000
C709        C  0.06868106  0.01193373  0.93092247     0.36700
C710        C  0.15564521  0.04770940  0.53011250     0.36600
N711        N  0.05116700  0.51038580  0.90989474    -0.43600
N712        N  0.17377990  0.05322023  0.54974372    -0.43600
C713        C  0.28939928  0.38760212  0.87159422    -0.00100
C714        C  0.27893058  0.38679111  0.83512842    -0.11900
C715        C  0.25085084  0.38693675  0.82834319     0.02200
C716        C  0.23246453  0.38737576  0.85845794    -0.00100
C717        C  0.24299040  0.38862532  0.89454555    -0.11900
C718        C  0.27064452  0.38915712  0.90134020     0.02100
H719        H  0.29226462  0.38658020  0.81151067     0.15000
H720        H  0.22950363  0.38939475  0.91820621     0.15000
C721        C  0.27885701  0.39171749  0.93976991     0.36700
C722        C  0.24178867  0.38729619  0.79020772     0.36600
N723        N  0.28501240  0.39389568  0.97066849    -0.43600
N724        N  0.23472086  0.38779173  0.75956422    -0.43600
C725        C  0.27668200  0.13054110  0.60652627    -0.00100
C726        C  0.25963370  0.16520611  0.59849634    -0.11900
C727        C  0.23174414  0.16386739  0.60581291     0.02200
C728        C  0.22028918  0.12710257  0.62165066    -0.00100
C729        C  0.23746814  0.09123243  0.62607414    -0.11900
C730        C  0.26528497  0.09296720  0.61930224     0.02100
H731        H  0.26828150  0.19396065  0.58784780     0.15000
H732        H  0.22982065  0.06137007  0.63504647     0.15000
C733        C  0.28186188  0.05550525  0.62554795     0.36700
C734        C  0.21563421  0.20144964  0.59811094     0.36600
N735        N  0.29518860  0.02555652  0.63048274    -0.43600
N736        N  0.20279952  0.23168480  0.59217242    -0.43600
C737        C  0.36442853  0.32205209  0.94660544    -0.00100
C738        C  0.37368745  0.28228691  0.93466966    -0.11900
C739        C  0.37905144  0.24966583  0.96028642     0.02200
C740        C  0.37607687  0.25679365  0.49819874    -0.00100
C741        C  0.36801982  0.29699521  0.51046272    -0.11900
C742        C  0.36145061  0.32925995  0.48507375     0.02100
H743        H  0.37549174  0.27616598  0.90519751     0.15000
H744        H  0.36511468  0.30236882  0.53988952     0.15000
C745        C  0.34959382  0.36789558  0.49918431     0.36700
C746        C  0.38710051  0.20860699  0.94659692     0.36600
N747        N  0.33985902  0.39843592  0.51107057    -0.43600
N748        N  0.39345810  0.17564370  0.93562622    -0.43600
C749        C  0.37555331  0.02585905  0.49000979    -0.00100
C750        C  0.36108941  0.03774485  0.95777451    -0.11900
C751        C  0.35536010  0.50714731  0.93058798     0.02200
C752        C  0.36372481  0.46456174  0.93572887    -0.00100
C753        C  0.38007556  0.45487942  0.46647109    -0.11900
C754        C  0.38565569  0.48465265  0.49380364     0.02100
H755        H  0.35390643  0.07001204  0.95381261     0.15000
H756        H  0.38724317  0.42269889  0.47055704     0.15000
C757        C  0.40010925  0.46998115  0.52639052     0.36700
C758        C  0.34074816  0.52146847  0.89800641     0.36600
N759        N  0.41155778  0.45759896  0.55240766    -0.43600
N760        N  0.32854860  0.03431340  0.87257808    -0.43600
C761        C  0.39582236  0.44442896  0.74398695    -0.00100
C762        C  0.41091190  0.44390194  0.71119691    -0.11900
C763        C  0.40723347  0.47511233  0.68404237     0.02200
C764        C  0.38827219  0.00860366  0.69008139    -0.00100
C765        C  0.37214685  0.00747166  0.72229240    -0.11900
C766        C  0.37539120  0.47545304  0.74852697     0.02100
H767        H  0.42659466  0.41981544  0.70756199     0.15000
H768        H  0.35694364  0.03198737  0.72694437     0.15000
C769        C  0.35934619  0.47700427  0.78181397     0.36700
C770        C  0.42497794  0.47302139  0.65233643     0.36600
N771        N  0.34649074  0.47806006  0.80853821    -0.43600
N772        N  0.43948310  0.47109492  0.62725211    -0.43600
C773        C  0.38467362  0.24666833  0.70122690    -0.00100
C774        C  0.38873849  0.23458699  0.73844234    -0.11900
C775        C  0.39466091  0.26471522  0.76560479     0.02200
C776        C  0.39625917  0.30763447  0.75564456    -0.00100
C777        C  0.39032002  0.31996731  0.71911850    -0.11900
C778        C  0.38468593  0.29002720  0.69194030     0.02100
H779        H  0.38841018  0.20147753  0.74601848     0.15000
H780        H  0.39102029  0.35302874  0.71147433     0.15000
C781        C  0.37889945  0.30469067  0.65469990     0.36700
C782        C  0.39878838  0.25108155  0.80349039     0.36600
N783        N  0.37420645  0.31644214  0.62488419    -0.43600
N784        N  0.40185766  0.24019190  0.83391960    -0.43600
C785        C  0.96741037  0.36368238  0.86816174    -0.00100
C786        C  0.98504319  0.32917130  0.87557003    -0.11900
C787        C  0.01282484  0.33101054  0.86889908     0.02200
C788        C  0.02400165  0.36794115  0.85353971    -0.00100
C789        C  0.00627328  0.40107620  0.84302086    -0.11900
C790        C  0.97833603  0.39898279  0.84944901     0.02100
H791        H  0.97776771  0.30017254  0.88726244     0.15000
H792        H  0.01428351  0.42908825  0.83004592     0.15000
C793        C  0.96142787  0.43396835  0.83692127     0.36700
C794        C  0.02927072  0.29486054  0.88006308     0.36600
N795        N  0.94788219  0.46184307  0.82657547    -0.43600
N796        N  0.04228457  0.26581369  0.88910945    -0.43600
C797        C  0.86579722  0.44836040  0.75970605    -0.00100
C798        C  0.88204728  0.43780965  0.72912128    -0.11900
C799        C  0.88804705  0.46800887  0.70194304     0.02200
C800        C  0.87900441  0.01041247  0.70590801    -0.00100
C801        C  0.86550864  0.02188793  0.73862835    -0.11900
C802        C  0.85851375  0.49124191  0.76531975     0.02100
H803        H  0.88861128  0.40538009  0.72500719     0.15000
H804        H  0.85897733  0.05440023  0.74275025     0.15000
C805        C  0.84496178  0.50563658  0.79852404     0.36700
C806        C  0.90270206  0.45420357  0.66947811     0.36600
N807        N  0.83398055  0.51744680  0.82491946    -0.43600
N808        N  0.91444666  0.44299112  0.64349434    -0.43600
C809        C  0.86872133  0.23905532  0.70135918    -0.00100
C810        C  0.86278599  0.28017520  0.68888522    -0.11900
C811        C  0.85742102  0.31278867  0.71402231     0.02200
C812        C  0.85957856  0.30508245  0.75249891    -0.00100
C813        C  0.86606063  0.26413987  0.76506508    -0.11900
C814        C  0.87029377  0.23103053  0.73985610     0.02100
H815        H  0.86094395  0.28633968  0.65934928     0.15000
H816        H  0.86693017  0.25779902  0.79463197     0.15000
C817        C  0.87627482  0.18922685  0.75405689     0.36700
C818        C  0.84745175  0.35271024  0.69960113     0.36600
N819        N  0.88101175  0.15568215  0.76541363    -0.43600
N820        N  0.83900410  0.38424078  0.68759176    -0.43600
C821        C  0.89982432  0.43647680  0.95062513    -0.00100
C822        C  0.91734810  0.43799462  0.98129191    -0.11900
C823        C  0.91381593  0.46806103  0.00924908     0.02200
C824        C  0.89318736  0.99926737  0.00591614    -0.00100
C825        C  0.87429409  0.99493288  0.97680648    -0.11900
C826        C  0.87733868  0.46445927  0.94928815     0.02100
H827        H  0.93419281  0.41559194  0.98325494     0.15000
H828        H  0.85678039  0.01603065  0.97526926     0.15000
C829        C  0.85795199  0.96200546  0.91988045     0.36700
C830        C  0.93538782  0.47096992  0.53680657     0.36600
N831        N  0.84175511  0.96047048  0.89672132    -0.43600
N832        N  0.95149152  0.47115341  0.56017744    -0.43600
C833        C  0.88049241  0.23772679  0.99855086    -0.00100
C834        C  0.88330949  0.22632988  0.96112393    -0.11900
C835        C  0.88879877  0.25675578  0.93403577     0.02200
C836        C  0.89133784  0.29931172  0.94423934    -0.00100
C837        C  0.88610146  0.31134926  0.98085664    -0.11900
C838        C  0.88066337  0.28102665  0.00803405     0.02100
H839        H  0.88263429  0.19340883  0.95327264     0.15000
H840        H  0.88758564  0.34423793  0.98859834     0.15000
C841        C  0.87653053  0.29513658  0.54549935     0.36700
C842        C  0.89226277  0.24372705  0.89599551     0.36600
N843        N  0.87258284  0.30636162  0.57553483    -0.43600
N844        N  0.89496068  0.23363855  0.86540606    -0.43600
C845        C  0.98548031  0.13952431  0.60125671    -0.00100
C846        C  0.00366245  0.10870909  0.61523240    -0.11900
C847        C  0.03164438  0.11110844  0.60885168     0.02200
C848        C  0.04215638  0.14401471  0.58653896    -0.00100
C849        C  0.02397327  0.17665167  0.57555554    -0.11900
C850        C  0.99617995  0.17469833  0.58248528     0.02100
H851        H  0.99597139  0.08229599  0.63089998     0.15000
H852        H  0.03070073  0.20385683  0.56056989     0.15000
C853        C  0.97912483  0.20847803  0.56782733     0.36700
C854        C  0.04904287  0.07883219  0.62517305     0.36600
N855        N  0.96557059  0.23560521  0.55605450    -0.43600
N856        N  0.06301980  0.05328099  0.63861981    -0.43600
C857        C  0.72011766  0.12456303  0.56678468    -0.00100
C858        C  0.73865383  0.14591298  0.54402830    -0.11900
C859        C  0.76633692  0.14560122  0.55153273     0.02200
C860        C  0.77688847  0.12202563  0.58170829    -0.00100
C861        C  0.75901103  0.09879359  0.60358668    -0.11900
C862        C  0.73105933  0.09882270  0.59574257     0.02100
H863        H  0.73216036  0.16192904  0.51898324     0.15000
H864        H  0.76703810  0.07920131  0.62594100     0.15000
C865        C  0.71450303  0.07012090  0.61639375     0.36700
C866        C  0.78336841  0.17041575  0.52769000     0.36600
N867        N  0.70125127  0.04686365  0.63272579    -0.43600
N868        N  0.79688847  0.19121163  0.00923488    -0.43600
C869        C  0.54166017  0.12714470  0.61618174    -0.00100
C870        C  0.53166186  0.12823597  0.57935670    -0.11900
C871        C  0.50373913  0.13012632  0.57192786     0.02200
C872        C  0.48522121  0.13134251  0.60139034    -0.00100
C873        C  0.49474031  0.12928486  0.63781771    -0.11900
C874        C  0.52241689  0.12697019  0.64552183     0.02100
H875        H  0.54511981  0.12813347  0.55592686     0.15000
H876        H  0.48036106  0.12945123  0.66050587     0.15000
C877        C  0.53028727  0.12476315  0.68416720     0.36700
C878        C  0.49448764  0.13110527  0.53390705     0.36600
N879        N  0.53649801  0.12276165  0.71511419    -0.43600
N880        N  0.48704161  0.13183847  0.50344252    -0.43600
C881        C  0.73298546  0.38178842  0.84206487    -0.00100
C882        C  0.74820734  0.34448060  0.84855314    -0.11900
C883        C  0.77639452  0.34328084  0.84419386     0.02200
C884        C  0.78988819  0.37957331  0.83151600    -0.00100
C885        C  0.77501738  0.41796438  0.83049216    -0.11900
C886        C  0.74696657  0.41929864  0.83458211     0.02100
H887        H  0.73804116  0.31586251  0.85646894     0.15000
H888        H  0.78494232  0.44754733  0.82603796     0.15000
C889        C  0.73328989  0.45953217  0.82879197     0.36700
C890        C  0.79081522  0.30427498  0.85256551     0.36600
N891        N  0.72248245  0.49181359  0.82389258    -0.43600
N892        N  0.80236900  0.27305024  0.85933809    -0.43600
C893        C  0.64398560  0.05414279  0.00000483    -0.00100
C894        C  0.63359732  0.06598343  0.96516595    -0.11900
C895        C  0.62712689  0.03555085  0.93876071     0.02200
C896        C  0.63000767  0.49186110  0.94684551    -0.00100
C897        C  0.63763572  0.48005051  0.98306351    -0.11900
C898        C  0.64531538  0.01100610  0.00970745     0.02100
H899        H  0.63169039  0.09904339  0.95788865     0.15000
H900        H  0.63937277  0.44689652  0.99036296     0.15000
C901        C  0.65294605  0.99732338  0.54589483     0.36700
C902        C  0.61795921  0.04946058  0.90253486     0.36600
N903        N  0.65938893  0.98694676  0.57549949    -0.43600
N904        N  0.61068200  0.06047118  0.87345311    -0.43600
C905        C  0.64422902  0.19390004  0.99266173    -0.00100
C906        C  0.65027795  0.18589825  0.95546586    -0.11900
C907        C  0.64517515  0.21638682  0.92815465     0.02200
C908        C  0.63452420  0.25652449  0.93825658    -0.00100
C909        C  0.62743100  0.26371816  0.97553252    -0.11900
C910        C  0.63223948  0.23273308  0.00271186     0.02100
H911        H  0.65999699  0.15621087  0.94790707     0.15000
H912        H  0.61912525  0.29415266  0.98378571     0.15000
C913        C  0.62756360  0.24236391  0.54184777     0.36700
C914        C  0.65112876  0.20529196  0.89016876     0.36600
N915        N  0.62301051  0.24985518  0.57260789    -0.43600
N916        N  0.65584821  0.19617882  0.85978618    -0.43600
C917        C  0.62751550  0.49334700  0.73898968    -0.00100
C918        C  0.63543800  0.03449162  0.74711874    -0.11900
C919        C  0.63131292  0.06714845  0.72114224     0.02200
C920        C  0.61887093  0.05857930  0.68669975    -0.00100
C921        C  0.61369873  0.01648125  0.67768335    -0.11900
C922        C  0.61795520  0.48450186  0.70289308     0.02100
H923        H  0.64357915  0.04193229  0.77422733     0.15000
H924        H  0.60518961  0.00921509  0.65073825     0.15000
C925        C  0.61248346  0.44209946  0.69102063     0.36700
C926        C  0.63886836  0.10905232  0.73178925     0.36600
N927        N  0.60820047  0.40811686  0.68141718    -0.43600
N928        N  0.64561999  0.14202132  0.74124128    -0.43600
C929        C  0.61168984  0.20045710  0.68927924    -0.00100
C930        C  0.59370991  0.20638198  0.71904935    -0.11900
C931        C  0.59810263  0.23700992  0.74590557     0.02200
C932        C  0.62097244  0.26251034  0.74353731    -0.00100
C933        C  0.63967073  0.25570617  0.71484025    -0.11900
C934        C  0.63516984  0.22495198  0.68763871     0.02100
H935        H  0.57603553  0.18690562  0.72136247     0.15000
H936        H  0.65737406  0.27521017  0.71311619     0.15000
C937        C  0.65430196  0.22050320  0.65774997     0.36700
C938        C  0.57912067  0.24107485  0.77614145     0.36600
N939        N  0.66983842  0.21735545  0.63394726    -0.43600
N940        N  0.56397927  0.24408998  0.80044101    -0.43600
C941        C  0.52369376  0.38448141  0.84739455    -0.00100
C942        C  0.50828082  0.34943618  0.85681197    -0.11900
C943        C  0.48034108  0.34918453  0.84924345     0.02200
C944        C  0.46770185  0.38377335  0.83036918    -0.00100
C945        C  0.48285541  0.42078317  0.82621880    -0.11900
C946        C  0.51052567  0.42107842  0.83390498     0.02100
H947        H  0.51820495  0.32174725  0.86881755     0.15000
H948        H  0.47346137  0.45011659  0.81722501     0.15000
C949        C  0.52510674  0.45952704  0.82792367     0.36700
C950        C  0.46519669  0.31327940  0.86139290     0.36600
N951        N  0.53683620  0.49030213  0.82339719    -0.43600
N952        N  0.45301203  0.28472749  0.87155390    -0.43600
Zn953      Zn  0.60679512  0.87609035  0.38946880     1.49700
Zn954      Zn  0.60427282  0.88063157  0.30050990     1.49400
Zn955      Zn  0.64962889  0.92968598  0.34311612     1.49100
Zn956      Zn  0.65229383  0.82930447  0.33881416     1.49500
O957        O  0.62815717  0.87885418  0.34328401    -1.84000
O958        O  0.56636147  0.87609881  0.37819959    -0.74700
O959        O  0.61225463  0.92989496  0.26701557    -0.74500
O960        O  0.64150836  0.96481563  0.38787633    -0.74000
O961        O  0.56570758  0.88542156  0.31693027    -0.74700
O962        O  0.61471559  0.92609169  0.42319673    -0.74300
O963        O  0.64339702  0.96560861  0.29713403    -0.74900
O964        O  0.69153871  0.84502519  0.33887931    -0.74200
O965        O  0.60769650  0.82739381  0.27056739    -0.75000
O966        O  0.68916334  0.91442349  0.34506666    -0.74400
O967        O  0.64437613  0.79456074  0.29322523    -0.74900
O968        O  0.64700296  0.79125494  0.38238001    -0.74800
O969        O  0.61592546  0.82259351  0.41764744    -0.74600
C970        C  0.55354238  0.88155368  0.34777025     0.77200
C971        C  0.62802268  0.96103753  0.26908236     0.77700
C972        C  0.62834951  0.95924911  0.41771068     0.76700
C973        C  0.70302404  0.88034659  0.34229647     0.77100
C974        C  0.62486185  0.79693801  0.27017380     0.78200
C975        C  0.63219687  0.79184994  0.41116501     0.77200
C976        C  0.57205648  0.62824481  0.12523435     0.86600
C977        C  0.57852456  0.66750390  0.14769467    -0.53600
C978        C  0.60439551  0.66914810  0.16048349     0.09500
C979        C  0.62237170  0.63145722  0.14800484     0.20500
C980        C  0.59286400  0.62858284  0.09359327    -0.54400
C981        C  0.61938415  0.63004471  0.10506561     0.09600
C982        C  0.58136420  0.59065252  0.14932132    -0.53900
C983        C  0.60742491  0.59225966  0.16179780     0.10200
H984        H  0.56325375  0.69130423  0.15464705     0.14700
H985        H  0.64335070  0.63265826  0.15858243     0.00400
H986        H  0.58720971  0.62686104  0.06487201     0.15000
H987        H  0.56805755  0.56510664  0.15661161     0.14800
C988        C  0.68970393  0.62596749  0.05661021     0.86600
C989        C  0.66936204  0.62848856  0.08900513    -0.53600
C990        C  0.64259614  0.62829522  0.07831255     0.09500
C991        C  0.63898230  0.62606215  0.03556971     0.20500
C992        C  0.68165433  0.58668984  0.03467513    -0.54400
C993        C  0.65499748  0.58728961  0.52442586     0.09600
C994        C  0.68089814  0.66380763  0.03202802    -0.53900
C995        C  0.65453350  0.66370128  0.52057426     0.10200
H996        H  0.67587253  0.63076725  0.11757249     0.14700
H997        H  0.61779141  0.62662169  0.52520926     0.00400
H998        H  0.69579144  0.56244282  0.52814438     0.15000
H999        H  0.69317641  0.69057094  0.52392829     0.14800
Zn1000     Zn  0.90733773  0.57529648  0.10615478     1.49700
Zn1001     Zn  0.89962911  0.67562540  0.10311259     1.49400
Zn1002     Zn  0.86229674  0.61826154  0.05307167     1.49100
Zn1003     Zn  0.85443898  0.62135802  0.14169999     1.49500
O1004       O  0.88086956  0.62231764  0.10111634    -1.84000
O1005       O  0.94623587  0.59640401  0.10649986    -0.74700
O1006       O  0.89152510  0.71060417  0.05802035    -0.74500
O1007       O  0.87264175  0.56453243  0.52566203    -0.74000
O1008       O  0.93986481  0.66578549  0.10406417    -0.74700
O1009       O  0.90366542  0.53502974  0.06287438    -0.74300
O1010       O  0.86907507  0.66888436  0.52010880    -0.74900
O1011       O  0.81557160  0.61997037  0.12205341    -0.74200
O1012       O  0.88890700  0.71076404  0.14711656    -0.75000
O1013       O  0.82227016  0.61844628  0.06115717    -0.74400
O1014       O  0.85779700  0.67257012  0.17516779    -0.74900
O1015       O  0.86181023  0.57045716  0.17365976    -0.74800
O1016       O  0.90005389  0.54122195  0.15270510    -0.74600
C1017       C  0.95563689  0.63355418  0.10464517     0.77200
C1018       C  0.88025046  0.70400597  0.02690533     0.77700
C1019       C  0.88934614  0.53433964  0.03340966     0.76700
C1020       C  0.80643968  0.61970748  0.08891329     0.77100
C1021       C  0.87215629  0.70541154  0.17330936     0.78200
C1022       C  0.88057064  0.54233600  0.17578504     0.77200
C1023       C  0.93805003  0.86458224  0.38225156     0.86600
C1024       C  0.92879266  0.82690966  0.40614346    -0.53600
C1025       C  0.90284205  0.83058873  0.41847134     0.09500
C1026       C  0.88819901  0.87137932  0.40634837     0.20500
C1027       C  0.91676845  0.86786463  0.35130381    -0.54400
C1028       C  0.89049725  0.87107011  0.36333547     0.09600
C1029       C  0.93254230  0.90282069  0.40718639    -0.53900
C1030       C  0.90674606  0.90651587  0.42016730     0.10200
H1031       H  0.94122910  0.80008593  0.41469870     0.14700
H1032       H  0.86750356  0.87392937  0.41780635     0.00400
H1033       H  0.92261228  0.86656864  0.32244784     0.15000
H1034       H  0.94834443  0.92410126  0.41562244     0.14800
C1035       C  0.81933298  0.87741296  0.31772446     0.86600
C1036       C  0.84041663  0.87350381  0.34897309    -0.53600
C1037       C  0.86678154  0.87181782  0.33719307     0.09500
C1038       C  0.86930840  0.87307569  0.29428782     0.20500
C1039       C  0.82809760  0.91554897  0.29434421    -0.54400
C1040       C  0.85435538  0.91416211  0.28303827     0.09600
C1041       C  0.82529643  0.84012163  0.29188982    -0.53900
C1042       C  0.85127267  0.83749353  0.27980503     0.10200
H1043       H  0.83445839  0.87298930  0.37782353     0.14700
H1044       H  0.89009046  0.87093457  0.28321789     0.00400
H1045       H  0.81441922  0.94019876  0.28442251     0.15000
H1046       H  0.81002213  0.81837611  0.28264121     0.14800
Zn1047     Zn  0.40395023  0.58484118  0.09129258     1.49700
Zn1048     Zn  0.35590534  0.63911968  0.05401656     1.49400
Zn1049     Zn  0.36087792  0.63115695  0.14358090     1.49100
Zn1050     Zn  0.40341169  0.68549720  0.09617760     1.49500
O1051       O  0.38089238  0.63538038  0.09640079    -1.84000
O1052       O  0.39607727  0.55312882  0.04473313    -0.74700
O1053       O  0.31677214  0.63938697  0.07126395    -0.74500
O1054       O  0.37023252  0.57679193  0.17197561    -0.74000
O1055       O  0.36130684  0.58894674  0.02045077    -0.74700
O1056       O  0.39840414  0.54455985  0.13345382    -0.74300
O1057       O  0.32073582  0.63009892  0.13239964    -0.74900
O1058       O  0.39640372  0.71907063  0.14236496    -0.74200
O1059       O  0.36216670  0.69128357  0.02290569    -0.75000
O1060       O  0.36870783  0.68134068  0.17718575    -0.74400
O1061       O  0.39517001  0.72429335  0.05221091    -0.74900
O1062       O  0.44327449  0.66877952  0.09692120    -0.74800
O1063       O  0.44331117  0.59877483  0.09252224    -0.74600
C1064       C  0.37796202  0.55773227  0.01986743     0.77200
C1065       C  0.30629572  0.63396321  0.10314684     0.77700
C1066       C  0.38531533  0.54509785  0.16372512     0.76700
C1067       C  0.38293569  0.71396399  0.17203312     0.77100
C1068       C  0.37817619  0.72205197  0.02566198     0.78200
C1069       C  0.45574185  0.63323544  0.09567510     0.77200
C1070       C  0.43855277  0.88207842  0.31538645     0.86600
C1071       C  0.43084067  0.91707888  0.28726408    -0.53600
C1072       C  0.40493021  0.91623372  0.27475697     0.09500
C1073       C  0.38861794  0.87996068  0.29106256     0.20500
C1074       C  0.41724208  0.88568085  0.34592870    -0.54400
C1075       C  0.39092833  0.88428538  0.33380871     0.09600
C1076       C  0.43171242  0.84137974  0.29434366    -0.53900
C1077       C  0.40559121  0.84024261  0.28178525     0.10200
H1078       H  0.44488046  0.93900655  0.27526469     0.14700
H1079       H  0.36788074  0.87895410  0.27949793     0.00400
H1080       H  0.42322187  0.88874377  0.37463899     0.15000
H1081       H  0.44657947  0.81680821  0.28796383     0.14800
C1082       C  0.31991248  0.88786852  0.38002546     0.86600
C1083       C  0.34074782  0.88476549  0.34820788    -0.53600
C1084       C  0.36728442  0.88585127  0.35979773     0.09500
C1085       C  0.37014589  0.88965272  0.40251235     0.20500
C1086       C  0.32825114  0.85148407  0.40612792    -0.54400
C1087       C  0.35411906  0.85281672  0.41858378     0.09600
C1088       C  0.32739269  0.92834379  0.40043987    -0.53900
C1089       C  0.35357394  0.92971193  0.41219426     0.10200
H1090       H  0.33519718  0.88205385  0.31940931     0.14700
H1091       H  0.39102822  0.89000954  0.41338406     0.00400
H1092       H  0.31447546  0.82722555  0.41504532     0.15000
H1093       H  0.31252757  0.95294541  0.40665721     0.14800
Zn1094     Zn  0.10911823  0.82913151  0.35092051     1.49700
Zn1095     Zn  0.10256270  0.93056922  0.34811532     1.49400
Zn1096     Zn  0.14906942  0.88609869  0.39742157     1.49100
Zn1097     Zn  0.15194186  0.88216371  0.30745807     1.49500
O1098       O  0.12818385  0.88231887  0.35103476    -1.84000
O1099       O  0.06927554  0.84058733  0.35042770    -0.74700
O1100       O  0.10644592  0.96734662  0.39355351    -0.74500
O1101       O  0.14352676  0.83528453  0.43123682    -0.74000
O1102       O  0.06363342  0.91012497  0.34784789    -0.74700
O1103       O  0.11711232  0.79538686  0.39677193    -0.74300
O1104       O  0.13929751  0.93848187  0.42766836    -0.74900
O1105       O  0.19132158  0.88416573  0.32275717    -0.74200
O1106       O  0.10992962  0.96755273  0.30277638    -0.75000
O1107       O  0.18829019  0.88759675  0.38402563    -0.74400
O1108       O  0.14396331  0.93287589  0.27562248    -0.74900
O1109       O  0.14762683  0.83011161  0.27581743    -0.74800
O1110       O  0.11887344  0.79152541  0.30792417    -0.74600
C1111       C  0.05387465  0.87321437  0.34994079     0.77200
C1112       C  0.12121075  0.96720173  0.42261277     0.77700
C1113       C  0.13036805  0.80162099  0.42643426     0.76700
C1114       C  0.20247870  0.88640917  0.35454387     0.77100
C1115       C  0.12737657  0.96409352  0.27688285     0.78200
C1116       C  0.13434261  0.79654627  0.28025972     0.77200
C1117       C  0.07152246  0.64180870  0.07196648     0.86600
C1118       C  0.07673569  0.60108970  0.05015467    -0.53600
C1119       C  0.10228568  0.59584116  0.03631001     0.09500
C1120       C  0.12105617  0.63235635  0.04692739     0.20500
C1121       C  0.09321707  0.64143529  0.10235375    -0.54400
C1122       C  0.11929749  0.63632532  0.08990872     0.09600
C1123       C  0.08054912  0.67705573  0.04518984    -0.53900
C1124       C  0.10631241  0.67220319  0.03228312     0.10200
H1125       H  0.06079461  0.57884738  0.04481438     0.14700
H1126       H  0.14168336  0.62906116  0.03544148     0.00400
H1127       H  0.08777710  0.64560166  0.13114712     0.15000
H1128       H  0.06835237  0.70387790  0.03622833     0.14800
C1129       C  0.19062819  0.62704098  0.13528361     0.86600
C1130       C  0.16952147  0.63290497  0.10404834    -0.53600
C1131       C  0.14314451  0.63482644  0.11581775     0.09500
C1132       C  0.14055579  0.63206813  0.15859315     0.20500
C1133       C  0.18487545  0.66335592  0.16236288    -0.54400
C1134       C  0.15882392  0.66626155  0.17419294     0.09600
C1135       C  0.18110043  0.58770791  0.15693095    -0.53900
C1136       C  0.15498554  0.59052080  0.16903495     0.10200
H1137       H  0.17539111  0.63478101  0.07519761     0.14700
H1138       H  0.11982570  0.63409090  0.16993290     0.00400
H1139       H  0.20031815  0.68452331  0.17215021     0.15000
H1140       H  0.19368849  0.56085230  0.16477111     0.14800
C1141       C  0.13799604  0.76184424  0.25359753    -0.00100
C1142       C  0.15306660  0.72603057  0.26473649    -0.11900
C1143       C  0.15937140  0.69399294  0.23943272     0.02200
C1144       C  0.15013132  0.69731597  0.20245131    -0.00100
C1145       C  0.13392027  0.73211785  0.19174250    -0.11900
C1146       C  0.12794078  0.76451920  0.21700457     0.02100
H1147       H  0.16062765  0.72372827  0.29297189     0.15000
H1148       H  0.12663477  0.73454849  0.16338629     0.15000
C1149       C  0.11137816  0.80005825  0.20500160     0.36700
C1150       C  0.17553340  0.65815437  0.25187939     0.36600
N1151       N  0.09797602  0.82848758  0.19552875    -0.43600
N1152       N  0.18837035  0.62927774  0.26175647    -0.43600
C1153       C  0.14317466  0.55833779  0.19393752    -0.00100
C1154       C  0.13307275  0.57084985  0.22861812    -0.11900
C1155       C  0.12642704  0.54087804  0.25569466     0.02200
C1156       C  0.12941940  0.99701398  0.24762935    -0.00100
C1157       C  0.13773478  0.98446417  0.21201309    -0.11900
C1158       C  0.14415137  0.51510036  0.18513603     0.02100
H1159       H  0.13183913  0.60408480  0.23538084     0.15000
H1160       H  0.13970811  0.95116628  0.20558554     0.15000
C1161       C  0.15194224  0.50067517  0.14870861     0.36700
C1162       C  0.11886453  0.55580397  0.29206690     0.36600
N1163       N  0.15928245  0.98749707  0.11984293    -0.43600
N1164       N  0.11294746  0.56808600  0.32117326    -0.43600
C1165       C  0.12953412  0.76882319  0.45574827    -0.00100
C1166       C  0.13133658  0.72636326  0.44508873    -0.11900
C1167       C  0.12577955  0.69384525  0.47015150     0.02200
C1168       C  0.11813764  0.70380484  0.00675238    -0.00100
C1169       C  0.11819378  0.74626782  0.01780782    -0.11900
C1170       C  0.12432879  0.77849101  0.99260794     0.02100
H1171       H  0.13617674  0.71862404  0.41655283     0.15000
H1172       H  0.11236215  0.75438867  0.04590385     0.15000
C1173       C  0.12268632  0.82166787  0.00503467     0.36700
C1174       C  0.12694796  0.65122072  0.45650866     0.36600
N1175       N  0.12143015  0.85628868  0.01498347    -0.43600
N1176       N  0.12836293  0.61767351  0.44413776    -0.43600
C1177       C  0.11672568  0.00056212  0.45139464    -0.00100
C1178       C  0.13740309  0.50916804  0.47645406    -0.11900
C1179       C  0.13341140  0.54017529  0.00509247     0.02200
C1180       C  0.10839534  0.56247690  0.00784372    -0.00100
C1181       C  0.08808420  0.55364059  0.98172823    -0.11900
C1182       C  0.09157971  0.52125475  0.45425306     0.02100
H1183       H  0.15662576  0.99283548  0.47539744     0.15000
H1184       H  0.06903202  0.57117854  0.98229622     0.15000
C1185       C  0.06874347  0.51242825  0.43063176     0.36700
C1186       C  0.15544170  0.54738407  0.03044078     0.36600
N1187       N  0.05103581  0.00976443  0.41036745    -0.43600
N1188       N  0.17351214  0.55276281  0.05021499    -0.43600
C1189       C  0.28945740  0.88758747  0.37156103    -0.00100
C1190       C  0.27898505  0.88669696  0.33510027    -0.11900
C1191       C  0.25090454  0.88681218  0.32832377     0.02200
C1192       C  0.23252198  0.88729204  0.35844335    -0.00100
C1193       C  0.24305168  0.88861047  0.39452596    -0.11900
C1194       C  0.27070618  0.88918304  0.40131076     0.02100
H1195       H  0.29231711  0.88644403  0.31148002     0.15000
H1196       H  0.22956763  0.88941466  0.41818902     0.15000
C1197       C  0.27892391  0.89183916  0.43973294     0.36700
C1198       C  0.24183677  0.88710177  0.29019107     0.36600
N1199       N  0.28508720  0.89410423  0.47062306    -0.43600
N1200       N  0.23476202  0.88754348  0.25955046    -0.43600
C1201       C  0.27664954  0.63034044  0.10656567    -0.00100
C1202       C  0.25956804  0.66490399  0.09832720    -0.11900
C1203       C  0.23167736  0.66355254  0.10563455     0.02200
C1204       C  0.22024439  0.62686255  0.12163829    -0.00100
C1205       C  0.23746269  0.59107307  0.12629811    -0.11900
C1206       C  0.26528347  0.59283221  0.11955210     0.02100
H1207       H  0.26819136  0.69360724  0.08753173     0.15000
H1208       H  0.22985404  0.56126735  0.13547322     0.15000
C1209       C  0.28189583  0.55546155  0.12605098     0.36700
C1210       C  0.21554107  0.70106173  0.09775986     0.36600
N1211       N  0.29524876  0.52558466  0.13119269    -0.43600
N1212       N  0.20268296  0.73123661  0.09167770    -0.43600
C1213       C  0.36446965  0.82204583  0.44658093    -0.00100
C1214       C  0.37367225  0.78225259  0.43463672    -0.11900
C1215       C  0.37900223  0.74961163  0.46024698     0.02200
C1216       C  0.37598936  0.75674677  0.99814890    -0.00100
C1217       C  0.36800209  0.79697378  0.01042802    -0.11900
C1218       C  0.36145500  0.82926261  0.98505299     0.02100
H1219       H  0.37545341  0.77612695  0.40516273     0.15000
H1220       H  0.36512644  0.80235160  0.03985968     0.15000
C1221       C  0.34961770  0.86790094  0.99918542     0.36700
C1222       C  0.38698366  0.70852715  0.44654684     0.36600
N1223       N  0.33989107  0.89843550  0.01109466    -0.43600
N1224       N  0.39328461  0.67554292  0.43556726    -0.43600
C1225       C  0.37555808  0.52584932  0.99001680    -0.00100
C1226       C  0.36103688  0.53769993  0.45781069    -0.11900
C1227       C  0.35541024  0.00716492  0.43054083     0.02200
C1228       C  0.36377371  0.96457820  0.43568540    -0.00100
C1229       C  0.38004995  0.95489050  0.96650166    -0.11900
C1230       C  0.38557337  0.98464397  0.99387590     0.02100
H1231       H  0.35381666  0.56995213  0.45387580     0.15000
H1232       H  0.38719039  0.92269942  0.97060531     0.15000
C1233       C  0.39987058  0.96992211  0.02657510     0.36700
C1234       C  0.34082378  0.02148872  0.39793888     0.36600
N1235       N  0.41117839  0.95750632  0.05269458    -0.43600
N1236       N  0.32837671  0.53422799  0.37270216    -0.43600
C1237       C  0.39589237  0.94448888  0.24398993    -0.00100
C1238       C  0.41100588  0.94402181  0.21121977    -0.11900
C1239       C  0.40730705  0.97523098  0.18406939     0.02200
C1240       C  0.38825907  0.50859737  0.19009405    -0.00100
C1241       C  0.37215039  0.50750606  0.22232264    -0.11900
C1242       C  0.37541998  0.97545199  0.24851235     0.02100
H1243       H  0.42671884  0.91998124  0.20759505     0.15000
H1244       H  0.35697159  0.53205482  0.22698810     0.15000
C1245       C  0.35935318  0.97694922  0.28178093     0.36700
C1246       C  0.42508130  0.97321580  0.15239013     0.36600
N1247       N  0.34648025  0.97796508  0.30849018    -0.43600
N1248       N  0.43960526  0.97136110  0.12732232    -0.43600
C1249       C  0.38466885  0.74671642  0.20115483    -0.00100
C1250       C  0.38869424  0.73464902  0.23838151    -0.11900
C1251       C  0.39463816  0.76477551  0.26553614     0.02200
C1252       C  0.39629766  0.80768107  0.25555884    -0.00100
C1253       C  0.39040134  0.82000900  0.21901930    -0.11900
C1254       C  0.38474642  0.79006953  0.19184739     0.02100
H1255       H  0.38831995  0.70154726  0.24597435     0.15000
H1256       H  0.39115035  0.85306285  0.21136246     0.15000
C1257       C  0.37900939  0.80472913  0.15459177     0.36700
C1258       C  0.39872928  0.75115543  0.30343213     0.36600
N1259       N  0.37435780  0.81647727  0.12476336    -0.43600
N1260       N  0.40177133  0.74028189  0.33387039    -0.43600
C1261       C  0.96748664  0.86371969  0.36817923    -0.00100
C1262       C  0.98512040  0.82921246  0.37559219    -0.11900
C1263       C  0.01289956  0.83104787  0.36891397     0.02200
C1264       C  0.02407406  0.86797268  0.35354011    -0.00100
C1265       C  0.00634488  0.90110558  0.34301829    -0.11900
C1266       C  0.97840884  0.89901438  0.34945422     0.02100
H1267       H  0.97784641  0.80021210  0.38729132     0.15000
H1268       H  0.01435325  0.92911331  0.33003259     0.15000
C1269       C  0.96149739  0.93399067  0.33691467     0.36700
C1270       C  0.02934453  0.79489753  0.38008011     0.36600
N1271       N  0.94794870  0.96185642  0.32655746    -0.43600
N1272       N  0.04235749  0.76585015  0.38912744    -0.43600
C1273       C  0.86584313  0.94833627  0.25971361    -0.00100
C1274       C  0.88207278  0.93779082  0.22910680    -0.11900
C1275       C  0.88806890  0.96800071  0.20193619     0.02200
C1276       C  0.87900691  0.51038704  0.20587748    -0.00100
C1277       C  0.86553709  0.52188337  0.23861243    -0.11900
C1278       C  0.85856561  0.99121601  0.26534568     0.02100
H1279       H  0.88862462  0.90535877  0.22497301     0.15000
H1280       H  0.85902330  0.55440321  0.24273681     0.15000
C1281       C  0.84502548  0.00559232  0.29856543     0.36700
C1282       C  0.90270116  0.95420412  0.16944902     0.36600
N1283       N  0.83405457  0.01737511  0.32497831    -0.43600
N1284       N  0.91442646  0.94300269  0.14344539    -0.43600
C1285       C  0.86870137  0.73907228  0.20125311    -0.00100
C1286       C  0.86272780  0.78018979  0.18880316    -0.11900
C1287       C  0.85740931  0.81279957  0.21396454     0.02200
C1288       C  0.85964796  0.80508949  0.25243517    -0.00100
C1289       C  0.86617053  0.76414964  0.26497094    -0.11900
C1290       C  0.87036082  0.73104746  0.23974307     0.02100
H1291       H  0.86082656  0.78635632  0.15927400     0.15000
H1292       H  0.86710184  0.75780245  0.29453403     0.15000
C1293       C  0.87638904  0.68924707  0.25391654     0.36700
C1294       C  0.84741720  0.85272652  0.19958188     0.36600
N1295       N  0.88116405  0.65570266  0.26524629    -0.43600
N1296       N  0.83895561  0.88426342  0.18760285    -0.43600
C1297       C  0.89990400  0.93650947  0.45065625    -0.00100
C1298       C  0.91748715  0.93812090  0.48125797    -0.11900
C1299       C  0.91396957  0.96820080  0.50920897     0.02200
C1300       C  0.89310129  0.49921525  0.50592451    -0.00100
C1301       C  0.87422332  0.49491479  0.47679238    -0.11900
C1302       C  0.87737273  0.96441045  0.44939520     0.02100
H1303       H  0.93437193  0.91578750  0.48317154     0.15000
H1304       H  0.85672067  0.51603373  0.47523859     0.15000
C1305       C  0.85790584  0.46203134  0.41983430     0.36700
C1306       C  0.93552282  0.97111360  0.03672974     0.36600
N1307       N  0.84172289  0.46052316  0.39665514    -0.43600
N1308       N  0.95165247  0.97134383  0.06006565    -0.43600
C1309       C  0.88053102  0.73768036  0.49848628    -0.00100
C1310       C  0.88342595  0.72629499  0.46106890    -0.11900
C1311       C  0.88893100  0.75674083  0.43400448     0.02200
C1312       C  0.89141320  0.79930366  0.44422440    -0.00100
C1313       C  0.88610169  0.81132166  0.48082673    -0.11900
C1314       C  0.88064339  0.78097888  0.50797860     0.02100
H1315       H  0.88279528  0.69337220  0.45321142     0.15000
H1316       H  0.88753960  0.84421327  0.48858010     0.15000
C1317       C  0.87627257  0.79503530  0.04535433     0.36700
C1318       C  0.89246190  0.74372795  0.39597097     0.36600
N1319       N  0.87222445  0.80623714  0.07537178    -0.43600
N1320       N  0.89521187  0.73365363  0.36538632    -0.43600
C1321       C  0.98542769  0.63953237  0.10124892    -0.00100
C1322       C  0.00359667  0.60865087  0.11514552    -0.11900
C1323       C  0.03158089  0.61105470  0.10879233     0.02200
C1324       C  0.04210580  0.64401265  0.08655429    -0.00100
C1325       C  0.02394401  0.67672598  0.07568429    -0.11900
C1326       C  0.99614936  0.67478806  0.08261799     0.02100
H1327       H  0.99589490  0.58218908  0.13073801     0.15000
H1328       H  0.03069539  0.70399672  0.06081175     0.15000
C1329       C  0.97912120  0.70870253  0.06814460     0.36700
C1330       C  0.04897175  0.57875186  0.12508800     0.36600
N1331       N  0.96558927  0.73594519  0.05653079    -0.43600
N1332       N  0.06294423  0.55318903  0.13852631    -0.43600
C1333       C  0.72007736  0.62469572  0.06677961    -0.00100
C1334       C  0.73861433  0.64636860  0.04426120    -0.11900
C1335       C  0.76629048  0.64601914  0.05180984     0.02200
C1336       C  0.77683762  0.62209663  0.08177114    -0.00100
C1337       C  0.75896415  0.59862267  0.10344614    -0.11900
C1338       C  0.73101520  0.59871361  0.09557726     0.02100
H1339       H  0.73215287  0.66265711  0.01934366     0.15000
H1340       H  0.76699142  0.57881594  0.12565564     0.15000
C1341       C  0.71444381  0.56988394  0.11606511     0.36700
C1342       C  0.78332836  0.67116016  0.02824516     0.36600
N1343       N  0.70117773  0.54653850  0.13227465    -0.43600
N1344       N  0.79685537  0.69150484  0.50936042    -0.43600
C1345       C  0.54162664  0.62720165  0.11615541    -0.00100
C1346       C  0.53163215  0.62830279  0.07932829    -0.11900
C1347       C  0.50371054  0.63019376  0.07189427     0.02200
C1348       C  0.48519046  0.63140529  0.10135401    -0.00100
C1349       C  0.49470570  0.62934411  0.13778285    -0.11900
C1350       C  0.52238085  0.62702394  0.14549187     0.02100
H1351       H  0.54509155  0.62819953  0.05590026     0.15000
H1352       H  0.48032416  0.62950337  0.16046830     0.15000
C1353       C  0.53024708  0.62479145  0.18413792     0.36700
C1354       C  0.49446304  0.63116156  0.03387140     0.36600
N1355       N  0.53645559  0.62276410  0.21508468    -0.43600
N1356       N  0.48702197  0.63188245  0.00340448    -0.43600
C1357       C  0.73308542  0.88174221  0.34212815    -0.00100
C1358       C  0.74828549  0.84438592  0.34849730    -0.11900
C1359       C  0.77647285  0.84316870  0.34414998     0.02200
C1360       C  0.78998207  0.87948350  0.33156090    -0.00100
C1361       C  0.77514309  0.91790449  0.33068560    -0.11900
C1362       C  0.74709510  0.91927234  0.33481712     0.02100
H1363       H  0.73810360  0.81574866  0.35631724     0.15000
H1364       H  0.78509791  0.94748279  0.32632450     0.15000
C1365       C  0.73345576  0.95958110  0.32929130     0.36700
C1366       C  0.79088063  0.80413625  0.35246656     0.36600
N1367       N  0.72268227  0.99193138  0.32461863    -0.43600
N1368       N  0.80242800  0.77289600  0.35920349    -0.43600
C1369       C  0.64396341  0.55414709  0.50002671    -0.00100
C1370       C  0.63346385  0.56597024  0.46524424    -0.11900
C1371       C  0.62697055  0.53552717  0.43886180     0.02200
C1372       C  0.63006617  0.99193638  0.44674966    -0.00100
C1373       C  0.63754354  0.98012617  0.48302740    -0.11900
C1374       C  0.64537914  0.51100748  0.50971103     0.02100
H1375       H  0.63148939  0.59902854  0.45798516     0.15000
H1376       H  0.63918266  0.94697435  0.49036484     0.15000
C1377       C  0.65322868  0.49724621  0.04583438     0.36700
C1378       C  0.61769675  0.54941804  0.40268015     0.36600
N1379       N  0.65980500  0.48684329  0.07537837    -0.43600
N1380       N  0.61033501  0.56041482  0.37363345    -0.43600
C1381       C  0.64419568  0.69392371  0.49260979    -0.00100
C1382       C  0.65019219  0.68585931  0.45540593    -0.11900
C1383       C  0.64513771  0.71635784  0.42808371     0.02200
C1384       C  0.63457710  0.75655209  0.43817981    -0.00100
C1385       C  0.62753752  0.76381242  0.47546334    -0.11900
C1386       C  0.63230768  0.73283130  0.50265399     0.02100
H1387       H  0.65984453  0.65611987  0.44785037     0.15000
H1388       H  0.61930548  0.79429510  0.48371281     0.15000
C1389       C  0.62767263  0.74249618  0.04177518     0.36700
C1390       C  0.65105024  0.70522061  0.39009541     0.36600
N1391       N  0.62318492  0.75006468  0.07253828    -0.43600
N1392       N  0.65573794  0.69607451  0.35971125    -0.43600
C1393       C  0.62762825  0.99334211  0.23891742    -0.00100
C1394       C  0.63533476  0.53451104  0.24715085    -0.11900
C1395       C  0.63123012  0.56715950  0.22115799     0.02200
C1396       C  0.61879533  0.55858732  0.18671114    -0.00100
C1397       C  0.61359118  0.51649157  0.17772140    -0.11900
C1398       C  0.61799451  0.98451840  0.20285320     0.02100
H1399       H  0.64348066  0.54195744  0.27425534     0.15000
H1400       H  0.60507824  0.50922058  0.15077967     0.15000
C1401       C  0.61247118  0.94212925  0.19099258     0.36700
C1402       C  0.63879866  0.60906193  0.23179147     0.36600
N1403       N  0.60814584  0.90815845  0.18139594    -0.43600
N1404       N  0.64555758  0.64203161  0.24123156    -0.43600
C1405       C  0.61167909  0.70049579  0.18923452    -0.00100
C1406       C  0.59371791  0.70644123  0.21902243    -0.11900
C1407       C  0.59812804  0.73708962  0.24585522     0.02200
C1408       C  0.62100042  0.76258156  0.24344946    -0.00100
C1409       C  0.63967281  0.75577178  0.21472270    -0.11900
C1410       C  0.63515007  0.72500605  0.18753918     0.02100
H1411       H  0.57604439  0.68696657  0.22136608     0.15000
H1412       H  0.65737178  0.77528109  0.21296106     0.15000
C1413       C  0.65424384  0.72057426  0.15760323     0.36700
C1414       C  0.57915840  0.74119164  0.27610257     0.36600
N1415       N  0.66974822  0.71745005  0.13375937    -0.43600
N1416       N  0.56402622  0.74424371  0.30040983    -0.43600
C1417       C  0.52376164  0.88444526  0.34735493    -0.00100
C1418       C  0.50836333  0.84935558  0.35669238    -0.11900
C1419       C  0.48042146  0.84910012  0.34913085     0.02200
C1420       C  0.46776688  0.88372684  0.33032881    -0.00100
C1421       C  0.48290509  0.92076395  0.32625994    -0.11900
C1422       C  0.51057534  0.92106836  0.33395332     0.02100
H1423       H  0.51829936  0.82164255  0.36863668     0.15000
H1424       H  0.47349585  0.95011127  0.31732783     0.15000
C1425       C  0.52513709  0.95955581  0.32808215     0.36700
C1426       C  0.46528873  0.81315844  0.36122337     0.36600
N1427       N  0.53685196  0.99036193  0.32365018    -0.43600
N1428       N  0.45311125  0.78457863  0.37133947    -0.43600
Zn1429     Zn  0.60704792  0.87638811  0.89035777     1.49700
Zn1430     Zn  0.60445791  0.88065999  0.80149554     1.49400
Zn1431     Zn  0.64974456  0.93021085  0.84389446     1.49100
Zn1432     Zn  0.65271223  0.82986281  0.83975835     1.49500
O1433       O  0.62840979  0.87920964  0.84418799    -1.84000
O1434       O  0.56659022  0.87627877  0.87919915    -0.74700
O1435       O  0.61233186  0.92977995  0.76786187    -0.74500
O1436       O  0.64152903  0.96540608  0.88860367    -0.74000
O1437       O  0.56586941  0.88529854  0.81790624    -0.74700
O1438       O  0.61494421  0.92639744  0.92400423    -0.74300
O1439       O  0.64337895  0.96586048  0.79781810    -0.74900
O1440       O  0.69191328  0.84591113  0.83974585    -0.74200
O1441       O  0.60805335  0.82740202  0.77165115    -0.75000
O1442       O  0.68936793  0.91533029  0.84570322    -0.74400
O1443       O  0.64492975  0.79500750  0.79418439    -0.74900
O1444       O  0.64744594  0.79179276  0.88331537    -0.74800
O1445       O  0.61624280  0.82294463  0.91853547    -0.74600
C1446       C  0.55373255  0.88153191  0.84877721     0.77200
C1447       C  0.62803387  0.96100965  0.76978114     0.77700
C1448       C  0.62844635  0.95967568  0.91847904     0.76700
C1449       C  0.70331427  0.88132940  0.84295729     0.77100
C1450       C  0.62536879  0.79715911  0.77119850     0.78200
C1451       C  0.63257489  0.79228757  0.91204237     0.77200
C1452       C  0.57192188  0.62981462  0.62581936     0.86600
C1453       C  0.57855698  0.66883879  0.64851295    -0.53600
C1454       C  0.60447901  0.67018230  0.66113882     0.09500
C1455       C  0.62230464  0.63246040  0.64841884     0.20500
C1456       C  0.59268557  0.63022972  0.59410921    -0.54400
C1457       C  0.61923086  0.63136538  0.60549725     0.09600
C1458       C  0.58116443  0.59196989  0.64968400    -0.53900
C1459       C  0.60726405  0.59329811  0.66207611     0.10200
H1460       H  0.56338258  0.69266900  0.65576268     0.14700
H1461       H  0.64330882  0.63346246  0.65893817     0.00400
H1462       H  0.58699135  0.62883885  0.56538864     0.15000
H1463       H  0.56779771  0.56647272  0.65689262     0.14800
C1464       C  0.68947209  0.62702445  0.55688817     0.86600
C1465       C  0.66916901  0.62992746  0.58929571    -0.53600
C1466       C  0.64239743  0.62949561  0.57867940     0.09500
C1467       C  0.63873571  0.62673036  0.53597311     0.20500
C1468       C  0.68144849  0.58747547  0.53534558    -0.54400
C1469       C  0.65520287  0.58670748  0.02370766     0.09600
C1470       C  0.68062009  0.66451899  0.53192924    -0.53900
C1471       C  0.65483510  0.66319191  0.02058782     0.10200
H1472       H  0.67571916  0.63263251  0.61781503     0.14700
H1473       H  0.61805175  0.62617306  0.02474344     0.00400
H1474       H  0.69595372  0.56164561  0.02735336     0.15000
H1475       H  0.69348448  0.68995977  0.02436886     0.14800
Zn1476     Zn  0.90686781  0.57507782  0.60627624     1.49700
Zn1477     Zn  0.89932549  0.67552723  0.60333130     1.49400
Zn1478     Zn  0.86203486  0.61813624  0.55311653     1.49100
Zn1479     Zn  0.85409047  0.62149328  0.64185181     1.49500
O1480       O  0.88051552  0.62224598  0.60124412    -1.84000
O1481       O  0.94576501  0.59600619  0.60679826    -0.74700
O1482       O  0.89118233  0.71069879  0.55832291    -0.74500
O1483       O  0.87257943  0.56434319  0.02605028    -0.74000
O1484       O  0.93955049  0.66540846  0.60407396    -0.74700
O1485       O  0.90353014  0.53510425  0.56272156    -0.74300
O1486       O  0.86940254  0.66882971  0.01980206    -0.74900
O1487       O  0.81530398  0.62041419  0.62205786    -0.74200
O1488       O  0.88870163  0.71067366  0.64742842    -0.75000
O1489       O  0.82199142  0.61820992  0.56115236    -0.74400
O1490       O  0.85748429  0.67268191  0.67544451    -0.74900
O1491       O  0.86121188  0.57040451  0.67367745    -0.74800
O1492       O  0.89933189  0.54084395  0.65264796    -0.74600
C1493       C  0.95524777  0.63308155  0.60472062     0.77200
C1494       C  0.87990524  0.70406872  0.52721211     0.77700
C1495       C  0.88950863  0.53464706  0.53298533     0.76700
C1496       C  0.80617877  0.61987573  0.58892327     0.77100
C1497       C  0.87190595  0.70546156  0.67359499     0.78200
C1498       C  0.87983453  0.54205099  0.67570660     0.77200
C1499       C  0.93846406  0.86394572  0.88170732     0.86600
C1500       C  0.92911511  0.82661540  0.90591274    -0.53600
C1501       C  0.90323038  0.83069861  0.91838424     0.09500
C1502       C  0.88873210  0.87156828  0.90611991     0.20500
C1503       C  0.91707797  0.86712493  0.85089864    -0.54400
C1504       C  0.89086801  0.87085020  0.86308984     0.09600
C1505       C  0.93321976  0.90253232  0.90634383    -0.53900
C1506       C  0.90749654  0.90666148  0.91956653     0.10200
H1507       H  0.94138389  0.79955674  0.91435871     0.14700
H1508       H  0.86807919  0.87437726  0.91767755     0.00400
H1509       H  0.92281141  0.86539489  0.82202013     0.15000
H1510       H  0.94915390  0.92379581  0.91432251     0.14800
C1511       C  0.81961881  0.87855005  0.81777797     0.86600
C1512       C  0.84074314  0.87396965  0.84894778    -0.53600
C1513       C  0.86708090  0.87194560  0.83707162     0.09500
C1514       C  0.86953713  0.87348382  0.79417698     0.20500
C1515       C  0.82865290  0.91674138  0.79466173    -0.54400
C1516       C  0.85488409  0.91492601  0.78324295     0.09600
C1517       C  0.82527425  0.84137303  0.79168668    -0.53900
C1518       C  0.85121939  0.83834962  0.77953412     0.10200
H1519       H  0.83484767  0.87326685  0.87782108     0.14700
H1520       H  0.89028403  0.87105100  0.78303026     0.00400
H1521       H  0.81519007  0.94176412  0.78494898     0.15000
H1522       H  0.80984164  0.81987307  0.78248157     0.14800
Zn1523     Zn  0.40396585  0.58554238  0.59133994     1.49700
Zn1524     Zn  0.35571350  0.63955480  0.55439132     1.49400
Zn1525     Zn  0.36056118  0.63116986  0.64384057     1.49100
Zn1526     Zn  0.40298190  0.68612940  0.59698318     1.49500
O1527       O  0.38066927  0.63580619  0.59678546    -1.84000
O1528       O  0.39616390  0.55400325  0.54463781    -0.74700
O1529       O  0.31655899  0.63981903  0.57147261    -0.74500
O1530       O  0.36981012  0.57641917  0.67150582    -0.74000
O1531       O  0.36108160  0.58943220  0.52078110    -0.74700
O1532       O  0.39843530  0.54481989  0.63318202    -0.74300
O1533       O  0.32041684  0.63019733  0.63257274    -0.74900
O1534       O  0.39579138  0.71928657  0.64336584    -0.74200
O1535       O  0.36209115  0.69164954  0.52336058    -0.75000
O1536       O  0.36841501  0.68087937  0.67809491    -0.74400
O1537       O  0.39477249  0.72498790  0.55306710    -0.74900
O1538       O  0.44290265  0.66981422  0.59778755    -0.74800
O1539       O  0.44329991  0.59986791  0.59268966    -0.74600
C1540       C  0.37788169  0.55841951  0.51997830     0.77200
C1541       C  0.30602613  0.63418618  0.60328519     0.77700
C1542       C  0.38504325  0.54492307  0.66320517     0.76700
C1543       C  0.38247768  0.71371568  0.67310029     0.77100
C1544       C  0.37798463  0.72253727  0.52629085     0.78200
C1545       C  0.45555462  0.63444802  0.59621202     0.77200
C1546       C  0.43878473  0.88183150  0.81616116     0.86600
C1547       C  0.43125383  0.91676949  0.78788388    -0.53600
C1548       C  0.40536325  0.91613825  0.77530116     0.09500
C1549       C  0.38890486  0.88002400  0.79160541     0.20500
C1550       C  0.41740402  0.88571453  0.84659356    -0.54400
C1551       C  0.39111861  0.88447201  0.83433816     0.09600
C1552       C  0.43185948  0.84107789  0.79522358    -0.53900
C1553       C  0.40575135  0.84008752  0.78254519     0.10200
H1554       H  0.44539130  0.93859109  0.77594602     0.14700
H1555       H  0.36819562  0.87917132  0.77994146     0.00400
H1556       H  0.42330947  0.88881275  0.87533129     0.15000
H1557       H  0.44665408  0.81633332  0.78904755     0.14800
C1558       C  0.31995497  0.88834739  0.88001283     0.86600
C1559       C  0.34091135  0.88512982  0.84837768    -0.53600
C1560       C  0.36739635  0.88621459  0.86016113     0.09500
C1561       C  0.37009461  0.89013052  0.90287591     0.20500
C1562       C  0.32815722  0.85204743  0.90628412    -0.54400
C1563       C  0.35399737  0.85331485  0.91886564     0.09600
C1564       C  0.32737043  0.92889247  0.90036394    -0.53900
C1565       C  0.35349289  0.93025791  0.91236118     0.10200
H1566       H  0.33547209  0.88239566  0.81954954     0.14700
H1567       H  0.39094506  0.89047667  0.91386313     0.00400
H1568       H  0.31433493  0.82780669  0.91510098     0.15000
H1569       H  0.31248573  0.95352750  0.90637699     0.14800
Zn1570     Zn  0.10947999  0.82829114  0.85028633     1.49700
Zn1571     Zn  0.10274482  0.92969989  0.84763093     1.49400
Zn1572     Zn  0.14935693  0.88540099  0.89662103     1.49100
Zn1573     Zn  0.15209976  0.88162319  0.80658215     1.49500
O1574       O  0.12843979  0.88157140  0.85029366    -1.84000
O1575       O  0.06963487  0.83951790  0.84969551    -0.74700
O1576       O  0.10649648  0.96609948  0.89327819    -0.74500
O1577       O  0.14395643  0.83465934  0.93043581    -0.74000
O1578       O  0.06388552  0.90905209  0.84712326    -0.74700
O1579       O  0.11748634  0.79461997  0.89620303    -0.74300
O1580       O  0.13965526  0.93764154  0.92707621    -0.74900
O1581       O  0.19155598  0.88363585  0.82181368    -0.74200
O1582       O  0.11010300  0.96721209  0.80266064    -0.75000
O1583       O  0.18845855  0.88696792  0.88308186    -0.74400
O1584       O  0.14401947  0.93269421  0.77507890    -0.74900
O1585       O  0.14769391  0.82953771  0.77482520    -0.74800
O1586       O  0.11925579  0.79076714  0.80731895    -0.74600
C1587       C  0.05419486  0.87209544  0.84917224     0.77200
C1588       C  0.12136187  0.96607492  0.92223313     0.77700
C1589       C  0.13078559  0.80099143  0.92580671     0.76700
C1590       C  0.20267436  0.88587732  0.85363774     0.77100
C1591       C  0.12749154  0.96398485  0.77668031     0.78200
C1592       C  0.13453677  0.79586311  0.77947657     0.77200
C1593       C  0.07111648  0.64088596  0.57133632     0.86600
C1594       C  0.07641757  0.60031328  0.54935399    -0.53600
C1595       C  0.10198689  0.59523968  0.53547813     0.09500
C1596       C  0.12066749  0.63183142  0.54625521     0.20500
C1597       C  0.09281573  0.64040336  0.60172497    -0.54400
C1598       C  0.11890937  0.63552065  0.58924570     0.09600
C1599       C  0.08007338  0.67632558  0.54472599    -0.53900
C1600       C  0.10584397  0.67171247  0.53183560     0.10200
H1601       H  0.06053558  0.57795140  0.54410034     0.14700
H1602       H  0.14129801  0.62878535  0.53475927     0.00400
H1603       H  0.08736515  0.64431785  0.63054147     0.15000
H1604       H  0.06784030  0.70314661  0.53586937     0.14800
C1605       C  0.19028177  0.62628293  0.63452341     0.86600
C1606       C  0.16915738  0.63224264  0.60331944    -0.53600
C1607       C  0.14277820  0.63399692  0.61511400     0.09500
C1608       C  0.14021331  0.63105447  0.65787231     0.20500
C1609       C  0.18448684  0.66244636  0.66171391    -0.54400
C1610       C  0.15844292  0.66523103  0.67357145     0.09600
C1611       C  0.18081747  0.58682794  0.65604488    -0.53900
C1612       C  0.15471045  0.58951624  0.66818618     0.10200
H1613       H  0.17501950  0.63437401  0.57448313     0.14700
H1614       H  0.11948804  0.63297788  0.66923599     0.00400
H1615       H  0.19990720  0.68362030  0.67156052     0.15000
H1616       H  0.19347127  0.56004795  0.66389345     0.14800
C1617       C  0.13812079  0.76105467  0.75290819    -0.00100
C1618       C  0.15381387  0.72577314  0.76376538    -0.11900
C1619       C  0.15982326  0.69350701  0.73856880     0.02200
C1620       C  0.14978015  0.69616002  0.70194487    -0.00100
C1621       C  0.13288900  0.73032565  0.69161283    -0.11900
C1622       C  0.12709787  0.76287900  0.71680565     0.02100
H1623       H  0.16200045  0.72400977  0.79169845     0.15000
H1624       H  0.12493331  0.73217990  0.66356533     0.15000
C1625       C  0.10972518  0.79766637  0.70524565     0.36700
C1626       C  0.17640951  0.65801941  0.75077106     0.36600
N1627       N  0.09565769  0.82546128  0.69611607    -0.43600
N1628       N  0.18956743  0.62938844  0.76041652    -0.43600
C1629       C  0.14305065  0.55746315  0.69333909    -0.00100
C1630       C  0.13293474  0.57030597  0.72791876    -0.11900
C1631       C  0.12628675  0.54061055  0.75521015     0.02200
C1632       C  0.12951998  0.99725708  0.74771745    -0.00100
C1633       C  0.13772824  0.98508121  0.71196530    -0.11900
C1634       C  0.14418984  0.51412287  0.68492039     0.02100
H1635       H  0.13172253  0.60360968  0.73445464     0.15000
H1636       H  0.13960019  0.95185362  0.70522976     0.15000
C1637       C  0.15225941  0.49932174  0.64871208     0.36700
C1638       C  0.11873838  0.55588921  0.79147172     0.36600
N1639       N  0.15877818  0.98901128  0.61964204    -0.43600
N1640       N  0.11284496  0.56842688  0.82050185    -0.43600
C1641       C  0.12996601  0.76841922  0.95531046    -0.00100
C1642       C  0.13151594  0.72588066  0.94489206    -0.11900
C1643       C  0.12603308  0.69362289  0.97023917     0.02200
C1644       C  0.11763896  0.70366858  0.50662796    -0.00100
C1645       C  0.11742189  0.74605517  0.51794090    -0.11900
C1646       C  0.12354822  0.77855132  0.49301169     0.02100
H1647       H  0.13615268  0.71787365  0.91634908     0.15000
H1648       H  0.11135914  0.75389541  0.54600727     0.15000
C1649       C  0.12148418  0.82162419  0.50563289     0.36700
C1650       C  0.12715430  0.65090436  0.95684822     0.36600
N1651       N  0.11986044  0.85615184  0.51575968    -0.43600
N1652       N  0.12861857  0.61733914  0.94452804    -0.43600
C1653       C  0.11674004  0.99928790  0.95108373    -0.00100
C1654       C  0.13722106  0.50945103  0.97729130    -0.11900
C1655       C  0.13349123  0.54002199  0.50412982     0.02200
C1656       C  0.10825327  0.56170402  0.50716792    -0.00100
C1657       C  0.08779148  0.55189350  0.48155930    -0.11900
C1658       C  0.09183429  0.52336341  0.95408963     0.02100
H1659       H  0.15696628  0.99303876  0.97425984     0.15000
H1660       H  0.06852880  0.56882179  0.48230443     0.15000
C1661       C  0.06928774  0.51607439  0.92951413     0.36700
C1662       C  0.15567027  0.54790275  0.52905049     0.36600
N1663       N  0.05029234  0.00476391  0.91221462    -0.43600
N1664       N  0.17389800  0.55370143  0.54844363    -0.43600
C1665       C  0.28955033  0.88797629  0.87127145    -0.00100
C1666       C  0.27924555  0.88626304  0.83474455    -0.11900
C1667       C  0.25120052  0.88601433  0.82774425     0.02200
C1668       C  0.23269429  0.88700843  0.85770500    -0.00100
C1669       C  0.24306371  0.88916813  0.89384614    -0.11900
C1670       C  0.27067569  0.89003456  0.90084294     0.02100
H1671       H  0.29267385  0.88550024  0.81123485     0.15000
H1672       H  0.22948670  0.89041476  0.91739771     0.15000
C1673       C  0.27873541  0.89350302  0.93927913     0.36700
C1674       C  0.24230102  0.88525593  0.78955317     0.36600
N1675       N  0.28482611  0.89650264  0.97014382    -0.43600
N1676       N  0.23537715  0.88484075  0.75885651    -0.43600
C1677       C  0.27638212  0.63035517  0.60653093    -0.00100
C1678       C  0.25921845  0.66478164  0.59816419    -0.11900
C1679       C  0.23129684  0.66315967  0.60517413     0.02200
C1680       C  0.21991488  0.62631799  0.62097266    -0.00100
C1681       C  0.23723222  0.59066053  0.62571405    -0.11900
C1682       C  0.26508281  0.59269964  0.61930612     0.02100
H1683       H  0.26779225  0.69358905  0.58750775     0.15000
H1684       H  0.22968051  0.56075231  0.63473397     0.15000
C1685       C  0.28179375  0.55546321  0.62593980     0.36700
C1686       C  0.21506951  0.70056882  0.59727382     0.36600
N1687       N  0.29522236  0.52569403  0.63120209    -0.43600
N1688       N  0.20212993  0.73066057  0.59119210    -0.43600
C1689       C  0.36435480  0.82222603  0.94660605    -0.00100
C1690       C  0.37346251  0.78249723  0.93434996    -0.11900
C1691       C  0.37887941  0.74963215  0.95972080     0.02200
C1692       C  0.37594731  0.75703836  0.49860405    -0.00100
C1693       C  0.36789709  0.79734147  0.51058748    -0.11900
C1694       C  0.36141333  0.82939669  0.48496920     0.02100
H1695       H  0.37513593  0.77661674  0.90482370     0.15000
H1696       H  0.36489705  0.80294383  0.53996491     0.15000
C1697       C  0.34947477  0.86809692  0.49881565     0.36700
C1698       C  0.38682736  0.70867353  0.94570627     0.36600
N1699       N  0.33968709  0.89867281  0.51055516    -0.43600
N1700       N  0.39311582  0.67580352  0.93445678    -0.43600
C1701       C  0.37543588  0.52652577  0.49014082    -0.00100
C1702       C  0.36130335  0.53710740  0.95758343    -0.11900
C1703       C  0.35516613  0.00776685  0.93077696     0.02200
C1704       C  0.36359582  0.96518600  0.93588859    -0.00100
C1705       C  0.38021120  0.95423135  0.46630332    -0.11900
C1706       C  0.38568056  0.98393446  0.49374449     0.02100
H1707       H  0.35416459  0.56939206  0.95359602     0.15000
H1708       H  0.38734280  0.92202996  0.47037333     0.15000
C1709       C  0.39985355  0.96913728  0.52653167     0.36700
C1710       C  0.34050643  0.02210584  0.89824178     0.36600
N1711       N  0.41104424  0.95669962  0.55274174    -0.43600
N1712       N  0.32884488  0.53361765  0.87227600    -0.43600
C1713       C  0.39638905  0.94470541  0.74469402    -0.00100
C1714       C  0.41142024  0.94424570  0.71186099    -0.11900
C1715       C  0.40774816  0.97556354  0.68479219     0.02200
C1716       C  0.38779285  0.50819302  0.68931239    -0.00100
C1717       C  0.37149994  0.50695198  0.72135629    -0.11900
C1718       C  0.37610879  0.97594652  0.74945316     0.02100
H1719       H  0.42705791  0.92011160  0.70811814     0.15000
H1720       H  0.35623196  0.53139687  0.72590298     0.15000
C1721       C  0.36032523  0.97769426  0.78296868     0.36700
C1722       C  0.42557365  0.97367032  0.65316007     0.36600
N1723       N  0.34772102  0.97890427  0.80991261    -0.43600
N1724       N  0.44012852  0.97197839  0.62811754    -0.43600
C1725       C  0.38419050  0.74627161  0.70240393    -0.00100
C1726       C  0.38914195  0.73410643  0.73940444    -0.11900
C1727       C  0.39528095  0.76427957  0.76645694     0.02200
C1728       C  0.39627472  0.80731718  0.75658612    -0.00100
C1729       C  0.38939469  0.81965432  0.72035421    -0.11900
C1730       C  0.38348596  0.78968217  0.69331409     0.02100
H1731       H  0.38933435  0.70093882  0.74685122     0.15000
H1732       H  0.38958004  0.85277547  0.71278009     0.15000
C1733       C  0.37668758  0.80433385  0.65638224     0.36700
C1734       C  0.40015297  0.75055638  0.80416131     0.36600
N1735       N  0.37116433  0.81603245  0.62680853    -0.43600
N1736       N  0.40377844  0.73954364  0.83444911    -0.43600
C1737       C  0.96785764  0.86265568  0.86746556    -0.00100
C1738       C  0.98555683  0.82842544  0.87561111    -0.11900
C1739       C  0.01332912  0.83019201  0.86886572     0.02200
C1740       C  0.02442190  0.86675207  0.85273330    -0.00100
C1741       C  0.00664704  0.89950209  0.84149638    -0.11900
C1742       C  0.97872167  0.89747348  0.84798795     0.02100
H1743       H  0.97837402  0.79977447  0.88808985     0.15000
H1744       H  0.01461935  0.92718580  0.82793116     0.15000
C1745       C  0.96176102  0.93204530  0.83473373     0.36700
C1746       C  0.02987773  0.79449007  0.88085447     0.36600
N1747       N  0.94816616  0.95955373  0.82376978    -0.43600
N1748       N  0.04298199  0.76581509  0.89055762    -0.43600
C1749       C  0.86659890  0.94898582  0.76001348    -0.00100
C1750       C  0.88271744  0.93826427  0.72934606    -0.11900
C1751       C  0.88879550  0.96840321  0.70216100     0.02200
C1752       C  0.87810882  0.50994858  0.70566445    -0.00100
C1753       C  0.86439947  0.52124795  0.73826517    -0.11900
C1754       C  0.85961245  0.99195412  0.76574583     0.02100
H1755       H  0.88909855  0.90576490  0.72516182     0.15000
H1756       H  0.85770392  0.55368860  0.74235751     0.15000
C1757       C  0.84637680  0.00648774  0.79914166     0.36700
C1758       C  0.90335955  0.95446284  0.66966950     0.36600
N1759       N  0.83567973  0.01839167  0.82572240    -0.43600
N1760       N  0.91504934  0.94308283  0.64369750    -0.43600
C1761       C  0.86843068  0.73927774  0.70143202    -0.00100
C1762       C  0.86267576  0.78040499  0.68880027    -0.11900
C1763       C  0.85744018  0.81322035  0.71380046     0.02200
C1764       C  0.85943675  0.80566567  0.75231290    -0.00100
C1765       C  0.86571454  0.76471435  0.76504012    -0.11900
C1766       C  0.86991437  0.73145042  0.73996842     0.02100
H1767       H  0.86094918  0.78646254  0.65923660     0.15000
H1768       H  0.86651818  0.75851472  0.79463200     0.15000
C1769       C  0.87589091  0.68973467  0.75436328     0.36700
C1770       C  0.84790347  0.85329509  0.69918589     0.36600
N1771       N  0.88066364  0.65628484  0.76590987    -0.43600
N1772       N  0.83983820  0.88497273  0.68700469    -0.43600
C1773       C  0.90086560  0.93722077  0.94981001    -0.00100
C1774       C  0.91905008  0.94019474  0.97966971    -0.11900
C1775       C  0.91546112  0.97038353  0.00753201     0.02200
C1776       C  0.89245427  0.49851839  0.00666037    -0.00100
C1777       C  0.87401084  0.49535237  0.97685496    -0.11900
C1778       C  0.87781173  0.96413819  0.94916661     0.02100
H1779       H  0.93645130  0.91881885  0.98112197     0.15000
H1780       H  0.85704494  0.51745388  0.97467929     0.15000
C1781       C  0.85788617  0.46312621  0.91943711     0.36700
C1782       C  0.93313166  0.96706076  0.53954288     0.36600
N1783       N  0.84201206  0.46206055  0.89583205    -0.43600
N1784       N  0.94851952  0.96569921  0.56380445    -0.43600
C1785       C  0.88085281  0.73771073  0.99824223    -0.00100
C1786       C  0.88344080  0.72648360  0.96074278    -0.11900
C1787       C  0.88890932  0.75701169  0.93372523     0.02200
C1788       C  0.89167361  0.79948519  0.94408433    -0.00100
C1789       C  0.88665034  0.81137672  0.98078059    -0.11900
C1790       C  0.88121902  0.78096734  0.00787859     0.02100
H1791       H  0.88260409  0.69361585  0.95276880     0.15000
H1792       H  0.88831911  0.84420364  0.98863906     0.15000
C1793       C  0.87536178  0.79514968  0.54534048     0.36700
C1794       C  0.89214944  0.74417880  0.89559379     0.36600
N1795       N  0.87103051  0.80645673  0.57525487    -0.43600
N1796       N  0.89467428  0.73428090  0.86492834    -0.43600
C1797       C  0.98504505  0.63882455  0.60107226    -0.00100
C1798       C  0.00318048  0.60767992  0.61460967    -0.11900
C1799       C  0.03114367  0.60986611  0.60798067     0.02200
C1800       C  0.04169337  0.64297893  0.58594612    -0.00100
C1801       C  0.02356609  0.67587189  0.57537078    -0.11900
C1802       C  0.99578815  0.67404775  0.58242786     0.02100
H1803       H  0.99546323  0.58114851  0.63009357     0.15000
H1804       H  0.03031769  0.70322480  0.56063082     0.15000
C1805       C  0.97878720  0.70800940  0.56797267     0.36700
C1806       C  0.04847229  0.57712896  0.62372074     0.36600
N1807       N  0.96527369  0.73525513  0.55632421    -0.43600
N1808       N  0.06238495  0.55115616  0.63665992    -0.43600
C1809       C  0.71982946  0.62576332  0.56706714    -0.00100
C1810       C  0.73840616  0.64731723  0.54452174    -0.11900
C1811       C  0.76610339  0.64660207  0.55193549     0.02200
C1812       C  0.77659467  0.62252607  0.58183045    -0.00100
C1813       C  0.75866522  0.59931165  0.60361749    -0.11900
C1814       C  0.73070647  0.59972170  0.59587152     0.02100
H1815       H  0.73197468  0.66374552  0.51966828     0.15000
H1816       H  0.76664870  0.57946834  0.62583167     0.15000
C1817       C  0.71403914  0.57119645  0.61655028     0.36700
C1818       C  0.78323115  0.67152768  0.52831645     0.36600
N1819       N  0.70069311  0.54811826  0.63293353    -0.43600
N1820       N  0.79687470  0.69131124  0.00932650    -0.43600
C1821       C  0.54147213  0.62903552  0.61674058    -0.00100
C1822       C  0.53147227  0.63053663  0.57991531    -0.11900
C1823       C  0.50355081  0.63235897  0.57246808     0.02200
C1824       C  0.48501315  0.63294535  0.60191406    -0.00100
C1825       C  0.49453316  0.63069873  0.63833752    -0.11900
C1826       C  0.52221774  0.62861940  0.64605845     0.02100
H1827       H  0.54492254  0.63084523  0.55648700     0.15000
H1828       H  0.48014720  0.63055438  0.66101357     0.15000
C1829       C  0.53007789  0.62643258  0.68470395     0.36700
C1830       C  0.49433014  0.63404057  0.53444304     0.36600
N1831       N  0.53626041  0.62451210  0.71566383    -0.43600
N1832       N  0.48692823  0.63540604  0.50396846    -0.43600
C1833       C  0.73337482  0.88290672  0.84255055    -0.00100
C1834       C  0.74868001  0.84572185  0.84919868    -0.11900
C1835       C  0.77685113  0.84458253  0.84466378     0.02200
C1836       C  0.79027127  0.88080996  0.83168383    -0.00100
C1837       C  0.77531837  0.91912977  0.83037890    -0.11900
C1838       C  0.74727007  0.92039212  0.83465562     0.02100
H1839       H  0.73858479  0.81712706  0.85735588     0.15000
H1840       H  0.78514639  0.94871573  0.82559717     0.15000
C1841       C  0.73349096  0.96049958  0.82861862     0.36700
C1842       C  0.79133549  0.80563603  0.85304909     0.36600
N1843       N  0.72260448  0.99268018  0.82352078    -0.43600
N1844       N  0.80295462  0.77446750  0.85981446    -0.43600
C1845       C  0.64406644  0.55370308  0.99923222    -0.00100
C1846       C  0.63396922  0.56556268  0.96425022    -0.11900
C1847       C  0.62742804  0.53514832  0.93786666     0.02200
C1848       C  0.63012030  0.99227504  0.94756704    -0.00100
C1849       C  0.63811805  0.98043397  0.98362282    -0.11900
C1850       C  0.64491546  0.51061406  0.00913110     0.02100
H1851       H  0.63230586  0.59859733  0.95687020     0.15000
H1852       H  0.64021358  0.94727097  0.99075681     0.15000
C1853       C  0.65429922  0.49757218  0.54613629     0.36700
C1854       C  0.61862559  0.54909163  0.90148234     0.36600
N1855       N  0.66139680  0.48707798  0.57543474    -0.43600
N1856       N  0.61165471  0.56012413  0.87226971    -0.43600
C1857       C  0.64455123  0.69385253  0.99295522    -0.00100
C1858       C  0.65003726  0.68582722  0.95559817    -0.11900
C1859       C  0.64491740  0.71652442  0.92847983     0.02200
C1860       C  0.63492576  0.75691203  0.93893697    -0.00100
C1861       C  0.62847049  0.76424368  0.97639786    -0.11900
C1862       C  0.63325547  0.73304577  0.00339377     0.02100
H1863       H  0.65938088  0.65597929  0.94773094     0.15000
H1864       H  0.62070197  0.79491784  0.98490040     0.15000
C1865       C  0.62607064  0.74222994  0.54085726     0.36700
C1866       C  0.65010565  0.70538508  0.89029499     0.36600
N1867       N  0.62104742  0.74973284  0.57147831    -0.43600
N1868       N  0.65418452  0.69624359  0.85974742    -0.43600
C1869       C  0.62764241  0.99303973  0.73941043    -0.00100
C1870       C  0.63527031  0.53474873  0.74699118    -0.11900
C1871       C  0.63112279  0.56763791  0.72123769     0.02200
C1872       C  0.61862576  0.55938781  0.68676274    -0.00100
C1873       C  0.61346329  0.51736833  0.67745977    -0.11900
C1874       C  0.61807859  0.98386556  0.70338139     0.02100
H1875       H  0.64342996  0.54194933  0.77414226     0.15000
H1876       H  0.60493693  0.51034366  0.65047325     0.15000
C1877       C  0.61240353  0.94139960  0.69187284     0.36700
C1878       C  0.63878626  0.60941870  0.73210532     0.36600
N1879       N  0.60792359  0.90737281  0.68257683    -0.43600
N1880       N  0.64565543  0.64226658  0.74171651    -0.43600
C1881       C  0.61197640  0.70118100  0.69001513    -0.00100
C1882       C  0.59452692  0.70616632  0.72046776    -0.11900
C1883       C  0.59913986  0.73648892  0.74751711     0.02200
C1884       C  0.62159833  0.76276935  0.74449965    -0.00100
C1885       C  0.63978675  0.75691467  0.71504704    -0.11900
C1886       C  0.63513576  0.72631423  0.68776437     0.02100
H1887       H  0.57712169  0.68617342  0.72315497     0.15000
H1888       H  0.65717496  0.77702420  0.71281822     0.15000
C1889       C  0.65371324  0.72267985  0.65714640     0.36700
C1890       C  0.58082546  0.73947252  0.77859435     0.36600
N1891       N  0.66878032  0.72014072  0.63273544    -0.43600
N1892       N  0.56624982  0.74159904  0.80359485    -0.43600
C1893       C  0.52394400  0.88433429  0.84840473    -0.00100
C1894       C  0.50858550  0.84915114  0.85760089    -0.11900
C1895       C  0.48064527  0.84883994  0.85000335     0.02200
C1896       C  0.46797011  0.88347145  0.83123915    -0.00100
C1897       C  0.48304555  0.92060680  0.82740467    -0.11900
C1898       C  0.51070588  0.92098789  0.83516764     0.02100
H1899       H  0.51854785  0.82142932  0.86948881     0.15000
H1900       H  0.47358227  0.94996567  0.81859128     0.15000
C1901       C  0.52520161  0.95958184  0.82954628     0.36700
C1902       C  0.46553077  0.81290808  0.86214112     0.36600
N1903       N  0.53685913  0.99047929  0.82532656    -0.43600
N1904       N  0.45339327  0.78433618  0.87236272    -0.43600
loop_ 
_geom_bond_atom_site_label_1 
_geom_bond_atom_site_label_2 
_geom_bond_distance 
_geom_bond_site_symmetry_2 
_ccdc_geom_bond_type 
Zn1           O5   1.977       .  S
Zn1           O6   2.039       .  S
Zn1          O10   2.045       .  S
Zn1          O17   2.016       .  S
Zn2           O5   1.939       .  S
Zn2           O7   2.016       .  S
Zn2           O9   2.002       .  S
Zn2          O13   2.012       .  S
Zn3           O5   1.950       .  S
Zn3           O8   2.003       .  S
Zn3          O11   2.025       .  S
Zn3          O14   2.006       .  S
Zn4           O5   1.960       .  S
Zn4          O12   2.014       .  S
Zn4          O15   2.025       .  S
Zn4          O16   1.998       .  S
O6           C18   1.274       .  A
O7           C19   1.274       .  A
O8           C20   1.273       .  A
O9           C18   1.273       .  A
O10          C20   1.276       .  A
O11          C19   1.274       .  A
O12          C21   1.273       .  A
O13          C22   1.272       .  A
O14          C21   1.272       .  A
O15          C22   1.272       .  A
O16          C23   1.272       .  A
O17          C23   1.274       .  A
C18         C465   1.474       .  S
C19         C441   1.490       .  S
C20         C420   1.479       .  S
C21         C405   1.488       .  S
C22         C456   1.473       .  S
C23         C432   1.482       .  S
C24          C25   1.528       .  S
C24          C30   1.535       .  S
C24          C28   1.540       .  S
C24         C393   1.541       .  S
C25          H32   1.087       .  S
C25          C26   1.360       .  D
C26          C27   1.543       .  S
C26         C453   1.487       .  S
C27          C31   1.541       .  S
C27          C29   1.555       .  S
C27          H33   1.106       .  S
C28          H34   1.074       .  S
C28          C29   1.375       .  D
C29          C38   1.502       .  S
C30          H35   1.087       .  S
C30          C31   1.366       .  D
C31         C444   1.492       .  S
C36          C37   1.545       .  S
C36          C42   1.543       .  S
C36          C40   1.537       .  S
C36         C381   1.544       .  S
C37          H44   1.081       .  S
C37          C38   1.377       .  D
C38          C39   1.553       .  S
C39         C519   1.526       .  S
C39         C517   1.533       .  S
C39         H521   1.105       .  S
C40         H522   1.086       .  S
C40         C517   1.365       .  D
C41         C515   1.533       .  S
C41         C516   1.365       .  D
C41         C417   1.486       .  S
C42         H523   1.083       .  S
C42         C519   1.353       .  D
C43         C515   1.526       .  S
C43         C518   1.352       .  D
C43         C429   1.471       .  S
H45         C515   1.105       .  S
H46         C516   1.086       .  S
H47         C518   1.083       .  S
Zn48         O52   1.970       .  S
Zn48         O53   2.048       .  S
Zn48         O57   2.032       .  S
Zn48         O64   2.030       .  S
Zn49         O52   1.948       .  S
Zn49         O54   2.000       .  S
Zn49         O56   2.008       .  S
Zn49         O60   2.011       .  S
Zn50         O52   1.965       .  S
Zn50         O61   2.002       .  S
Zn50        O531   2.032       .  S
Zn50        O534   2.034       .  S
Zn51         O52   1.966       .  S
Zn51         O59   2.045       .  S
Zn51         O62   2.040       .  S
Zn51         O63   2.006       .  S
O53          C65   1.277       .  A
O54          C66   1.271       .  A
O55        Zn526   2.029       .  S
O55         C543   1.275       .  A
O56          C65   1.273       .  A
O57          C67   1.275       .  A
O58        Zn526   2.036       .  S
O58         C542   1.275       .  A
O59          C68   1.276       .  A
O60          C69   1.272       .  A
O61          C68   1.273       .  A
O62          C69   1.275       .  A
O63          C70   1.275       .  A
O64          C70   1.275       .  A
C65         C369   1.494       .  S
C66         O534   1.275       .  A
C66         C833   1.484   1_554  S
C67         O531   1.275       .  A
C67         C824   1.500   1_545  S
C68         C384   1.485       .  S
C69         C333   1.480       .  S
C70         C324   1.485       .  S
C71          C72   1.547       .  S
C71          C77   1.534       .  S
C71          C75   1.532       .  S
C71         C309   1.543       .  S
C72          H79   1.082       .  S
C72          C73   1.362       .  D
C73          C74   1.531       .  S
C73         C360   1.478       .  S
C74          C78   1.543       .  S
C74          C76   1.556       .  S
C74          H80   1.106       .  S
C75          H81   1.081       .  S
C75          C76   1.373       .  D
C76          C85   1.502       .  S
C77          H82   1.087       .  S
C77          C78   1.364       .  D
C78         C345   1.495       .  S
C83          C84   1.536       .  S
C83          C89   1.534       .  S
C83          C87   1.542       .  S
C83         C408   1.537       .  S
C84          H91   1.082       .  S
C84          C85   1.373       .  D
C85          C86   1.552       .  S
C86          C90   1.545       .  S
C86          C88   1.537       .  S
C86          H92   1.104       .  S
C87          H93   1.081       .  S
C87          C88   1.362       .  D
C88         C321   1.492       .  S
C89          H94   1.086       .  S
C89          C90   1.359       .  D
C90         C336   1.482       .  S
Zn95         O99   1.958       .  S
Zn95        O100   2.003       .  S
Zn95        O104   2.005       .  S
Zn95        O111   2.007       .  S
Zn96         O99   1.963       .  S
Zn96        O101   2.033       .  S
Zn96        O103   2.017       .  S
Zn96        O107   2.022       .  S
Zn97         O99   1.976       .  S
Zn97        O102   2.041       .  S
Zn97        O105   2.026       .  S
Zn97        O108   2.050       .  S
Zn98         O99   1.960       .  S
Zn98        O106   2.008       .  S
Zn98        O109   2.037       .  S
Zn98        O110   2.030       .  S
O100        C112   1.271       .  A
O101        C113   1.275       .  A
O102        C114   1.276       .  A
O103        C112   1.274       .  A
O104        C114   1.271       .  A
O105        C113   1.276       .  A
O106        C115   1.274       .  A
O107        C116   1.274       .  A
O108        C115   1.277       .  A
O109        C116   1.275       .  A
O110        C117   1.274       .  A
O111        C117   1.271       .  A
C112        C273   1.487   1_554  S
C113        C249   1.478       .  S
C114        C288   1.498       .  S
C115        C297   1.484       .  S
C116        C264   1.479   1_554  S
C117        C396   1.470       .  S
C118        C119   1.541       .  S
C118        C124   1.544       .  S
C118        C122   1.530       .  S
C118        C468   1.542       .  S
C119        H126   1.083       .  S
C119        C120   1.357       .  D
C120        C121   1.535       .  S
C120        C285   1.485       .  S
C121        C125   1.538       .  S
C121        C123   1.551       .  S
C121        H127   1.107       .  S
C122        H128   1.081       .  S
C122        C123   1.373       .  D
C123        C132   1.500       .  S
C124        H129   1.086       .  S
C124        C125   1.369       .  D
C125        C300   1.484       .  S
C130        C131   1.546       .  S
C130        C136   1.534       .  S
C130        C134   1.535       .  S
C130        C237   1.535       .  S
C131        H138   1.077       .  S
C131        C132   1.377       .  D
C132        C133   1.551       .  S
C133        C137   1.540       .  S
C133        C135   1.538       .  S
C133        H139   1.103       .  S
C134        H140   1.087       .  S
C134        C135   1.356       .  D
C135        C261   1.484       .  S
C136        H141   1.085       .  S
C136        C137   1.362       .  D
C137        C276   1.492       .  S
Zn142       O146   1.950       .  S
Zn142       O147   1.995       .  S
Zn142       O151   1.999       .  S
Zn142       O158   2.012       .  S
Zn143       O146   1.967       .  S
Zn143       O148   2.024       .  S
Zn143       O150   2.043       .  S
Zn143       O154   2.045       .  S
Zn144       O146   1.967       .  S
Zn144       O149   2.038       .  S
Zn144       O152   2.042       .  S
Zn144       O155   1.997       .  S
Zn145       O146   1.966       .  S
Zn145       O153   2.028       .  S
Zn145       O156   2.006       .  S
Zn145       O157   2.029       .  S
O147        C159   1.272       .  A
O148        C160   1.275       .  A
O149        C161   1.274       .  A
O150        C159   1.278       .  A
O151        C161   1.271       .  A
O152        C160   1.275       .  A
O153        C162   1.274       .  A
O154        C163   1.277       .  A
O155        C162   1.275       .  A
O156        C163   1.274       .  A
O157        C164   1.273       .  A
O158        C164   1.270       .  A
C159        C312   1.491       .  S
C160        C225   1.499       .  S
C161        C213   1.481       .  S
C162        C240   1.492       .  S
C163        C204   1.486       .  S
C164        C189   1.473       .  S
C165        C166   1.533       .  S
C165        C171   1.548       .  S
C165        C169   1.531       .  S
C165        C372   1.549       .  S
C166        H173   1.086       .  S
C166        C167   1.368       .  D
C167        C168   1.549       .  S
C167        C228   1.506       .  S
C168        C172   1.536       .  S
C168        C170   1.558       .  S
C168        H174   1.105       .  S
C169        H175   1.081       .  S
C169        C170   1.374       .  D
C170        C179   1.502       .  S
C171        H176   1.080       .  S
C171        C172   1.363       .  D
C172        C216   1.487       .  S
C177        C178   1.541       .  S
C177        C183   1.551       .  S
C177        C181   1.535       .  S
C177        C252   1.546       .  S
C178        H185   1.083       .  S
C178        C179   1.373       .  D
C179        C180   1.550       .  S
C180        C184   1.530       .  S
C180        C182   1.534       .  S
C180        H186   1.106       .  S
C181        H187   1.087       .  S
C181        C182   1.359       .  D
C182        C192   1.479       .  S
C183        H188   1.080       .  S
C183        C184   1.366       .  D
C184        C201   1.487       .  S
C189        C190   1.402       .  A
C189        C194   1.410       .  A
C190        C191   1.400       .  A
C190        H195   1.085       .  S
C191        C192   1.411       .  A
C191        C198   1.445       .  S
C192        C193   1.402       .  A
C193        C194   1.404       .  A
C193        H196   1.085       .  S
C194        C197   1.443       .  S
C197        N199   1.157       .  T
C198        N200   1.157       .  T
C201        C202   1.404       .  A
C201        C206   1.409       .  A
C202        C203   1.404       .  A
C202        H207   1.084       .  S
C203       C1156   1.415   1_545  A
C203        C210   1.444       .  S
C204        C205   1.406       .  A
C204       C1155   1.415       .  A
C205       C1158   1.399       .  A
C205        H208   1.085       .  S
C206       C1157   1.399   1_545  A
C206        C209   1.444   1_545  S
C209       N1163   1.157       .  T
C210        N212   1.157       .  T
N211       C1161   1.157       .  T
C213        C214   1.403       .  A
C213        C694   1.411       .  A
C214        C215   1.400       .  A
C214        H219   1.085       .  S
C215        C692   1.411       .  A
C215        C222   1.441       .  S
C216        C217   1.406       .  A
C216        C691   1.411   1_554  A
C217        C218   1.403   1_554  A
C217        H220   1.085       .  S
C218        C689   1.411       .  A
C218        C221   1.444   1_556  S
C221        N223   1.157       .  T
C222        N224   1.156       .  T
C225       C1178   1.410       .  A
C225       C1182   1.415       .  A
C226       C1177   1.411       .  A
C226        C703   1.412       .  A
C226       H1183   1.084   1_545  S
C227        C228   1.417       .  A
C227        C702   1.412   1_554  A
C227        C234   1.442       .  S
C228        C229   1.408   1_554  A
C229        C706   1.397       .  A
C229        H232   1.084       .  S
C230       C1177   1.415       .  A
C230        C705   1.397       .  A
C230        C233   1.445       .  S
H231       C1178   1.084       .  S
C233       N1187   1.157       .  T
C234        N236   1.157       .  T
N235       C1185   1.157       .  T
C237        C238   1.412       .  A
C237        C242   1.420       .  A
C238        C239   1.409       .  A
C238        H243   1.079       .  S
C239        C240   1.418       .  A
C239        C246   1.445       .  S
C240        C241   1.401       .  A
C241        C242   1.388       .  A
C241        H244   1.085       .  S
C242        C245   1.446       .  S
C245        N247   1.157       .  T
C246        N248   1.158       .  T
C249        C250   1.400       .  A
C249        C254   1.406       .  A
C250        C251   1.406       .  A
C250        H255   1.085       .  S
C251        C252   1.425       .  A
C251        C258   1.445       .  S
C252        C253   1.413       .  A
C253        C254   1.400       .  A
C253        H256   1.076       .  S
C254        C257   1.445       .  S
C257        N259   1.157       .  T
C258        N260   1.157       .  T
C261        C262   1.403       .  A
C261        C742   1.412       .  A
C262        C263   1.405       .  A
C262        H267   1.085       .  S
C263        C740   1.412       .  A
C263        C270   1.443       .  S
C264        C265   1.401   1_556  A
C264        C739   1.412       .  A
C265        C266   1.402   1_554  A
C265        H268   1.085       .  S
C266        C737   1.413       .  A
C266        C269   1.443       .  S
C269        N271   1.157   1_556  T
C270        N272   1.157       .  T
C273        C750   1.404       .  A
C273       C1230   1.416   1_545  A
C274        C749   1.404       .  A
C274       C1227   1.398       .  A
C274        H279   1.085       .  S
C275        C276   1.416       .  A
C275       C1226   1.399       .  A
C275        C282   1.443       .  S
C276        C753   1.402       .  A
C277        C278   1.399       .  A
C277        C752   1.402       .  A
C277        H280   1.083       .  S
C278       C1225   1.417       .  A
C278        C281   1.444   1_556  S
C281        N283   1.157       .  T
C282       N1236   1.157       .  T
N284       C1234   1.157       .  T
C285        C286   1.400       .  A
C285        C290   1.406       .  A
C286        C287   1.398       .  A
C286        H291   1.086       .  S
C287       C1240   1.422       .  A
C287        C294   1.444       .  S
C288        C289   1.412       .  A
C288       C1239   1.422   1_545  A
C289       C1242   1.406   1_545  A
C289        H292   1.084       .  S
C290       C1241   1.407       .  A
C290        C293   1.441       .  S
C293        N295   1.156       .  T
C294        N296   1.157       .  T
C297        C298   1.406       .  A
C297        C302   1.414       .  A
C298        C299   1.407       .  A
C298        H303   1.084       .  S
C299        C300   1.411       .  A
C299        C306   1.443       .  S
C300        C301   1.401       .  A
C301        C302   1.399       .  A
C301        H304   1.085       .  S
C302        C305   1.445       .  S
C305        N307   1.157       .  T
C306        N308   1.157       .  T
C309        C310   1.409       .  A
C309        C314   1.422       .  A
C310        C311   1.398   1_655  A
C310        H315   1.079       .  S
C311        C312   1.417       .  A
C311        C318   1.447       .  S
C312        C313   1.404       .  A
C313        C314   1.404   1_455  A
C313        H316   1.085       .  S
C314        C317   1.445       .  S
C317        N319   1.157       .  T
C318        N320   1.158       .  T
C321        C322   1.404       .  A
C321        C326   1.415       .  A
C322        C323   1.404       .  A
C322        H327   1.083       .  S
C323       C1276   1.415       .  A
C323        C330   1.443       .  S
C324        C325   1.403       .  A
C324       C1275   1.415   1_545  A
C325       C1278   1.396   1_545  A
C325        H328   1.085       .  S
C326       C1277   1.396       .  A
C326        C329   1.445       .  S
C329        N331   1.157       .  T
C330        N332   1.157       .  T
C333        C334   1.403       .  A
C333        C338   1.412       .  A
C334        C335   1.401       .  A
C334        H339   1.085       .  S
C335        C336   1.411       .  A
C335        C342   1.443       .  S
C336        C337   1.404       .  A
C337        C338   1.405       .  A
C337        H340   1.084       .  S
C338        C341   1.443       .  S
C341        N343   1.157       .  T
C342        N344   1.157       .  T
C345        C346   1.405       .  A
C345        C350   1.410       .  A
C346        C347   1.400       .  A
C346        H351   1.085       .  S
C347       C1300   1.418       .  A
C347        C830   1.445       .  S
C348        C543   1.500   1_565  S
C348        C349   1.412       .  A
C348       C1299   1.419       .  A
C349       C1302   1.407       .  A
C349        H352   1.084   1_565  S
C350       C1301   1.407       .  A
C350       C1305   1.442       .  S
C353       C1302   1.442       .  S
C353        N355   1.157       .  T
C354        C823   1.444       .  S
C354        N356   1.157       .  T
C357        C542   1.484       .  S
C357        C358   1.405       .  A
C357        C362   1.418       .  A
C358        C359   1.401       .  A
C358        H363   1.084       .  S
C359        C360   1.409       .  A
C359        C366   1.444       .  S
C360        C361   1.399       .  A
C361        C362   1.400       .  A
C361        H364   1.085       .  S
C362        C841   1.445       .  S
C365        C838   1.445       .  S
C365        N367   1.157       .  T
C366        N368   1.157       .  T
C369        C370   1.405   1_655  A
C369        C374   1.415       .  A
C370        C371   1.407       .  A
C370        H375   1.085   1_455  S
C371        C372   1.423       .  A
C371        C378   1.445       .  S
C372        C373   1.411       .  A
C373        C374   1.400   1_455  A
C373        H376   1.075       .  S
C374        C377   1.446       .  S
C377        N379   1.158       .  T
C378        N380   1.157       .  T
C381        C382   1.414       .  A
C381        C386   1.421       .  A
C382        C383   1.394       .  A
C382        H387   1.078       .  S
C383        C384   1.409       .  A
C383        C390   1.447       .  S
C384        C385   1.405       .  A
C385        C386   1.409       .  A
C385        H388   1.085       .  S
C386        C389   1.443       .  S
C389        N391   1.157       .  T
C390        N868   1.158       .  T
N392        C866   1.158       .  T
C393        C394   1.416       .  A
C393        C398   1.425       .  A
C394        C395   1.406       .  A
C394        H399   1.077       .  S
C395        C396   1.405       .  A
C395        C402   1.444       .  S
C396        C397   1.395       .  A
C397        C398   1.396       .  A
C397        H400   1.086       .  S
C398        C401   1.446       .  S
C401        N403   1.157       .  T
C402        N404   1.157       .  T
C405        C406   1.407       .  A
C405        C410   1.414       .  A
C406        C407   1.403       .  A
C406        H411   1.085       .  S
C407        C408   1.418       .  A
C407        C414   1.445       .  S
C408        C409   1.410       .  A
C409        C410   1.396       .  A
C409        H412   1.079       .  S
C410        C413   1.446       .  S
C413        N415   1.157       .  T
C414        N416   1.157       .  T
C417        C418   1.402       .  A
C417        C422   1.411       .  A
C418        C419   1.400       .  A
C418        H423   1.081       .  S
C419       C1372   1.412   1_545  A
C419        C426   1.445       .  S
C420        C421   1.405       .  A
C420       C1371   1.412       .  A
C421       C1374   1.404       .  A
C421        H424   1.085       .  S
C422       C1373   1.405   1_545  A
C422        C901   1.444   1_545  S
C425        C898   1.444   1_565  S
C425        N427   1.157       .  T
C426        N428   1.157       .  T
C429        C430   1.398       .  A
C429        C434   1.405       .  A
C430        C431   1.395       .  A
C430        H435   1.084       .  S
C431        C432   1.416       .  A
C431        C438   1.445       .  S
C432        C433   1.408       .  A
C433        C434   1.401       .  A
C433        H436   1.084       .  S
C434        C913   1.444       .  S
C437        C910   1.444       .  S
C437        N439   1.157       .  T
C438        N440   1.158       .  T
C441        C446   1.415       .  A
C441       C1394   1.407       .  A
C442        C443   1.405       .  A
C442       C1393   1.407   1_545  A
C442        H447   1.085       .  S
C443        C444   1.414       .  A
C443        C450   1.442       .  S
C444        C445   1.404       .  A
C445       C1398   1.399   1_545  A
C445        H448   1.085       .  S
C446       C1397   1.399       .  A
C446        C449   1.444       .  S
C449        N451   1.157       .  T
C450        N452   1.157       .  T
C453        C454   1.406       .  A
C453        C458   1.412       .  A
C454        C455   1.395       .  A
C454        H459   1.084       .  S
C455        C456   1.407       .  A
C455        C462   1.445       .  S
C456        C457   1.404       .  A
C457        C458   1.407       .  A
C457        H460   1.084       .  S
C458        C461   1.442       .  S
C461        N463   1.157       .  T
C462        N464   1.157       .  T
C465        C466   1.402       .  A
C465        C470   1.403       .  A
C466        C467   1.408       .  A
C466        H471   1.085       .  S
C467        C468   1.421       .  A
C467        C474   1.443       .  S
C468        C469   1.414       .  A
C469        C470   1.395       .  A
C469        H472   1.079       .  S
C470        C473   1.446       .  S
C473        N475   1.157       .  T
C474        N476   1.157       .  T
Zn477       O481   1.978       .  S
Zn477       O482   2.039       .  S
Zn477       O486   2.047       .  S
Zn477       O493   2.016       .  S
Zn478       O481   1.939       .  S
Zn478       O483   2.017       .  S
Zn478       O485   2.001       .  S
Zn478       O489   2.013       .  S
Zn479       O481   1.949       .  S
Zn479       O484   2.002       .  S
Zn479       O487   2.026       .  S
Zn479       O490   2.005       .  S
Zn480       O481   1.961       .  S
Zn480       O488   2.014       .  S
Zn480       O491   2.025       .  S
Zn480       O492   1.998       .  S
O482        C494   1.274       .  A
O483        C495   1.274       .  A
O484        C496   1.273       .  A
O485        C494   1.273       .  A
O486        C496   1.276       .  A
O487        C495   1.274       .  A
O488        C497   1.273       .  A
O489        C498   1.272       .  A
O490        C497   1.272       .  A
O491        C498   1.272       .  A
O492        C499   1.272       .  A
O493        C499   1.274       .  A
C494        C941   1.473       .  S
C495        C917   1.491       .  S
C496        C896   1.480       .  S
C497        C881   1.488       .  S
C498        C932   1.473       .  S
C499        C908   1.483       .  S
C500        C501   1.528       .  S
C500        C506   1.534       .  S
C500        C504   1.539       .  S
C500        C869   1.540       .  S
C501        H508   1.087       .  S
C501        C502   1.360       .  D
C502        C503   1.544       .  S
C502        C929   1.488       .  S
C503        C507   1.541       .  S
C503        C505   1.556       .  S
C503        H509   1.105       .  S
C504        H510   1.074       .  S
C504        C505   1.375       .  D
C505        C514   1.502       .  S
C506        H511   1.087       .  S
C506        C507   1.365       .  D
C507        C920   1.492       .  S
C512        C513   1.545       .  S
C512        C518   1.543       .  S
C512        C516   1.537       .  S
C512        C857   1.544       .  S
C513        H520   1.081       .  S
C513        C514   1.377       .  D
C514        C515   1.553       .  S
C517        C893   1.485       .  S
C519        C905   1.471   1_554  S
Zn524       O528   1.971       .  S
Zn524       O529   2.050       .  S
Zn524       O533   2.031       .  S
Zn524       O540   2.029       .  S
Zn525       O528   1.947       .  S
Zn525       O530   1.999       .  S
Zn525       O532   2.007       .  S
Zn525       O536   2.009       .  S
Zn526       O528   1.964       .  S
Zn526       O537   2.001       .  S
Zn527       O528   1.966       .  S
Zn527       O535   2.048       .  S
Zn527       O538   2.037       .  S
Zn527       O539   2.006       .  S
O529        C541   1.278       .  A
O530        C542   1.271       .  A
O532        C541   1.273       .  A
O533        C543   1.275       .  A
O535        C544   1.276       .  A
O536        C545   1.271       .  A
O537        C544   1.273       .  A
O538        C545   1.275       .  A
O539        C546   1.275       .  A
O540        C546   1.275       .  A
C541        C845   1.494       .  S
C544        C860   1.486       .  S
C545        C809   1.479       .  S
C546        C800   1.485       .  S
C547        C548   1.548       .  S
C547        C553   1.533       .  S
C547        C551   1.533       .  S
C547        C785   1.543       .  S
C548        H555   1.082       .  S
C548        C549   1.362       .  D
C549        C550   1.530       .  S
C549        C836   1.478       .  S
C550        C554   1.542       .  S
C550        C552   1.555       .  S
C550        H556   1.106       .  S
C551        H557   1.081       .  S
C551        C552   1.373       .  D
C552        C561   1.502       .  S
C553        H558   1.087       .  S
C553        C554   1.363       .  D
C554        C821   1.492       .  S
C559        C560   1.535       .  S
C559        C565   1.533       .  S
C559        C563   1.542       .  S
C559        C884   1.537       .  S
C560        H567   1.082       .  S
C560        C561   1.373       .  D
C561        C562   1.553       .  S
C562        C566   1.545       .  S
C562        C564   1.537       .  S
C562        H568   1.104       .  S
C563        H569   1.082       .  S
C563        C564   1.362       .  D
C564        C797   1.492       .  S
C565        H570   1.086       .  S
C565        C566   1.359       .  D
C566        C812   1.482       .  S
Zn571       O575   1.957       .  S
Zn571       O576   2.002       .  S
Zn571       O580   2.005       .  S
Zn571       O587   2.005       .  S
Zn572       O575   1.963       .  S
Zn572       O577   2.034       .  S
Zn572       O579   2.018       .  S
Zn572       O583   2.024       .  S
Zn573       O575   1.976       .  S
Zn573       O578   2.045       .  S
Zn573       O581   2.025       .  S
Zn573       O584   2.047       .  S
Zn574       O575   1.960       .  S
Zn574       O582   2.008       .  S
Zn574       O585   2.037       .  S
Zn574       O586   2.030       .  S
O576        C588   1.271       .  A
O577        C589   1.275       .  A
O578        C590   1.276       .  A
O579        C588   1.275       .  A
O580        C590   1.271       .  A
O581        C589   1.276       .  A
O582        C591   1.274       .  A
O583        C592   1.274       .  A
O584        C591   1.277       .  A
O585        C592   1.275       .  A
O586        C593   1.274       .  A
O587        C593   1.271       .  A
C588        C749   1.487       .  S
C589        C725   1.478       .  S
C590        C764   1.499       .  S
C591        C773   1.484       .  S
C592        C740   1.480       .  S
C593        C872   1.470       .  S
C594        C595   1.541       .  S
C594        C600   1.544       .  S
C594        C598   1.530       .  S
C594        C944   1.542       .  S
C595        H602   1.083       .  S
C595        C596   1.358       .  D
C596        C597   1.535       .  S
C596        C761   1.485       .  S
C597        C601   1.538       .  S
C597        C599   1.552       .  S
C597        H603   1.107       .  S
C598        H604   1.081       .  S
C598        C599   1.373       .  D
C599        C608   1.501       .  S
C600        H605   1.086       .  S
C600        C601   1.368       .  D
C601        C776   1.483       .  S
C606        C607   1.547       .  S
C606        C612   1.534       .  S
C606        C610   1.535       .  S
C606        C713   1.536       .  S
C607        H614   1.077       .  S
C607        C608   1.377       .  D
C608        C609   1.551       .  S
C609        C613   1.539       .  S
C609        C611   1.538       .  S
C609        H615   1.103       .  S
C610        H616   1.087       .  S
C610        C611   1.356       .  D
C611        C737   1.483       .  S
C612        H617   1.085       .  S
C612        C613   1.362       .  D
C613        C752   1.491       .  S
Zn618       O622   1.950       .  S
Zn618       O623   1.996       .  S
Zn618       O627   1.998       .  S
Zn618       O634   2.014       .  S
Zn619       O622   1.968       .  S
Zn619       O624   2.026       .  S
Zn619       O626   2.044       .  S
Zn619       O630   2.046       .  S
Zn620       O622   1.968       .  S
Zn620       O625   2.040       .  S
Zn620       O628   2.042       .  S
Zn620       O631   2.002       .  S
Zn621       O622   1.965       .  S
Zn621       O629   2.024       .  S
Zn621       O632   2.003       .  S
Zn621       O633   2.025       .  S
O623        C635   1.272       .  A
O624        C636   1.275       .  A
O625        C637   1.274       .  A
O626        C635   1.278       .  A
O627        C637   1.271       .  A
O628        C636   1.275       .  A
O629        C638   1.273       .  A
O630        C639   1.277       .  A
O631        C638   1.276       .  A
O632        C639   1.273       .  A
O633        C640   1.273       .  A
O634        C640   1.271       .  A
C635        C788   1.492       .  S
C636        C701   1.499       .  S
C637        C689   1.481       .  S
C638        C716   1.493       .  S
C639        C680   1.486       .  S
C640        C665   1.473       .  S
C641        C642   1.533       .  S
C641        C647   1.548       .  S
C641        C645   1.530       .  S
C641        C848   1.549       .  S
C642        H649   1.086       .  S
C642        C643   1.367       .  D
C643        C644   1.548       .  S
C643        C704   1.505       .  S
C644        C648   1.536       .  S
C644        C646   1.558       .  S
C644        H650   1.105       .  S
C645        H651   1.081       .  S
C645        C646   1.373       .  D
C646        C655   1.502       .  S
C647        H652   1.080       .  S
C647        C648   1.363       .  D
C648        C692   1.488       .  S
C653        C654   1.541       .  S
C653        C659   1.551       .  S
C653        C657   1.536       .  S
C653        C728   1.546       .  S
C654        H661   1.083       .  S
C654        C655   1.373       .  D
C655        C656   1.550       .  S
C656        C660   1.530       .  S
C656        C658   1.534       .  S
C656        H662   1.106       .  S
C657        H663   1.087       .  S
C657        C658   1.360       .  D
C658        C668   1.479       .  S
C659        H664   1.080       .  S
C659        C660   1.366       .  D
C660        C677   1.487       .  S
C665        C666   1.402       .  A
C665        C670   1.410       .  A
C666        C667   1.400       .  A
C666        H671   1.085       .  S
C667        C668   1.411       .  A
C667        C674   1.444       .  S
C668        C669   1.402       .  A
C669        C670   1.404       .  A
C669        H672   1.085       .  S
C670        C673   1.443       .  S
C673        N675   1.157       .  T
C674        N676   1.157       .  T
C677        C678   1.404       .  A
C677        C682   1.409       .  A
C678        C679   1.404       .  A
C678        H683   1.084       .  S
C679       C1632   1.415   1_545  A
C679        C686   1.444       .  S
C680       C1631   1.415       .  A
C680        C681   1.406       .  A
C681       C1634   1.399       .  A
C681        H684   1.085       .  S
C682       C1633   1.399   1_545  A
C682        C685   1.444       .  S
C685       N1639   1.157   1_545  T
C686        N688   1.157       .  T
N687       C1637   1.157       .  T
C689        C690   1.404       .  A
C690        C691   1.400       .  A
C690        H695   1.085       .  S
C691        C698   1.441       .  S
C692        C693   1.406       .  A
C693        C694   1.403       .  A
C693        H696   1.085       .  S
C694        C697   1.444       .  S
C697        N699   1.157       .  T
C698        N700   1.157       .  T
C701       C1654   1.411       .  A
C701       C1658   1.416       .  A
C702       C1653   1.410   1_545  A
C702       H1659   1.084   1_545  S
C703        C704   1.416       .  A
C703        C710   1.442       .  S
C704        C705   1.408       .  A
C705        H708   1.084       .  S
C706       C1653   1.415   1_545  A
C706        C709   1.445       .  S
H707       C1654   1.084       .  S
C709       N1663   1.157       .  T
C710        N712   1.157       .  T
N711       C1661   1.157       .  T
C713        C714   1.412       .  A
C713        C718   1.421       .  A
C714        C715   1.409       .  A
C714        H719   1.079       .  S
C715        C716   1.418       .  A
C715        C722   1.445       .  S
C716        C717   1.401       .  A
C717        C718   1.389       .  A
C717        H720   1.085       .  S
C718        C721   1.446       .  S
C721        N723   1.157       .  T
C722        N724   1.158       .  T
C725        C726   1.400       .  A
C725        C730   1.406       .  A
C726        C727   1.406       .  A
C726        H731   1.085       .  S
C727        C728   1.425       .  A
C727        C734   1.445       .  S
C728        C729   1.413       .  A
C729        C730   1.400       .  A
C729        H732   1.076       .  S
C730        C733   1.445       .  S
C733        N735   1.157       .  T
C734        N736   1.157       .  T
C737        C738   1.403       .  A
C738        C739   1.404       .  A
C738        H743   1.085       .  S
C739        C746   1.443       .  S
C740        C741   1.402       .  A
C741        C742   1.402       .  A
C741        H744   1.085       .  S
C742        C745   1.443       .  S
C745        N747   1.157       .  T
C746        N748   1.157       .  T
C749       C1706   1.417   1_545  A
C750       C1703   1.399       .  A
C750        H755   1.085       .  S
C751       C1702   1.398       .  A
C751        C752   1.415       .  A
C751        C758   1.443       .  S
C753        C754   1.399       .  A
C753        H756   1.083       .  S
C754       C1701   1.416       .  A
C754        C757   1.443       .  S
C757        N759   1.157       .  T
C758       N1712   1.157       .  T
N760       C1710   1.157       .  T
C761        C762   1.400       .  A
C761        C766   1.406       .  A
C762        C763   1.398       .  A
C762        H767   1.086       .  S
C763       C1716   1.422       .  A
C763        C770   1.444       .  S
C764       C1715   1.422   1_545  A
C764        C765   1.412       .  A
C765       C1718   1.407   1_545  A
C765        H768   1.084       .  S
C766       C1717   1.406       .  A
C766        C769   1.441       .  S
C769        N771   1.156       .  T
C770        N772   1.157       .  T
C773        C774   1.406       .  A
C773        C778   1.414       .  A
C774        C775   1.406       .  A
C774        H779   1.084       .  S
C775        C776   1.410       .  A
C775        C782   1.443       .  S
C776        C777   1.401       .  A
C777        C778   1.399       .  A
C777        H780   1.084       .  S
C778        C781   1.445       .  S
C781        N783   1.157       .  T
C782        N784   1.157       .  T
C785        C786   1.409       .  A
C785        C790   1.422       .  A
C786        C787   1.398   1_655  A
C786        H791   1.079       .  S
C787        C788   1.417       .  A
C787        C794   1.446       .  S
C788        C789   1.404       .  A
C789        C790   1.404   1_455  A
C789        H792   1.085       .  S
C790        C793   1.445       .  S
C793        N795   1.157       .  T
C794        N796   1.158       .  T
C797        C798   1.404       .  A
C797        C802   1.415       .  A
C798        C799   1.404       .  A
C798        H803   1.083       .  S
C799       C1752   1.415       .  A
C799        C806   1.444       .  S
C800       C1751   1.415   1_545  A
C800        C801   1.403       .  A
C801       C1754   1.396   1_545  A
C801        H804   1.085       .  S
C802       C1753   1.396       .  A
C802        C805   1.445       .  S
C805        N807   1.157       .  T
C806        N808   1.157       .  T
C809        C810   1.403       .  A
C809        C814   1.412       .  A
C810        C811   1.400       .  A
C810        H815   1.085       .  S
C811        C812   1.411       .  A
C811        C818   1.443       .  S
C812        C813   1.404       .  A
C813        C814   1.405       .  A
C813        H816   1.084       .  S
C814        C817   1.444       .  S
C817        N819   1.157       .  T
C818        N820   1.157       .  T
C821        C822   1.404       .  A
C821        C826   1.408       .  A
C822        C823   1.400   1_556  A
C822        H827   1.085       .  S
C823       C1776   1.419       .  A
C824       C1775   1.418       .  A
C824        C825   1.412   1_554  A
C825       C1778   1.407       .  A
C825        H828   1.084   1_565  S
C826       C1777   1.407       .  A
C826       C1781   1.442       .  S
C829       C1778   1.442       .  S
C829        N831   1.157       .  T
C830        N832   1.157       .  T
C833        C834   1.405       .  A
C833        C838   1.417   1_556  A
C834        C835   1.401       .  A
C834        H839   1.084       .  S
C835        C836   1.409       .  A
C835        C842   1.444       .  S
C836        C837   1.400       .  A
C837        C838   1.401   1_556  A
C837        H840   1.085       .  S
C841        N843   1.157       .  T
C842        N844   1.157       .  T
C845        C846   1.404   1_655  A
C845        C850   1.415       .  A
C846        C847   1.407       .  A
C846        H851   1.085   1_455  S
C847        C848   1.423       .  A
C847        C854   1.445       .  S
C848        C849   1.411       .  A
C849        C850   1.400   1_455  A
C849        H852   1.075       .  S
C850        C853   1.446       .  S
C853        N855   1.158       .  T
C854        N856   1.157       .  T
C857        C858   1.414       .  A
C857        C862   1.421       .  A
C858        C859   1.394       .  A
C858        H863   1.079       .  S
C859        C860   1.410       .  A
C859        C866   1.447       .  S
C860        C861   1.405       .  A
C861        C862   1.410       .  A
C861        H864   1.084       .  S
C862        C865   1.443       .  S
C865        N867   1.157       .  T
C869        C870   1.415       .  A
C869        C874   1.425       .  A
C870        C871   1.405       .  A
C870        H875   1.077       .  S
C871        C872   1.405       .  A
C871        C878   1.444       .  S
C872        C873   1.394       .  A
C873        C874   1.396       .  A
C873        H876   1.086       .  S
C874        C877   1.446       .  S
C877        N879   1.157       .  T
C878        N880   1.157       .  T
C881        C882   1.407       .  A
C881        C886   1.414       .  A
C882        C883   1.403       .  A
C882        H887   1.085       .  S
C883        C884   1.418       .  A
C883        C890   1.445       .  S
C884        C885   1.409       .  A
C885        C886   1.395       .  A
C885        H888   1.080       .  S
C886        C889   1.445       .  S
C889        N891   1.157       .  T
C890        N892   1.157       .  T
C893        C894   1.402   1_554  A
C893        C898   1.411       .  A
C894        C895   1.400       .  A
C894        H899   1.082       .  S
C895       C1848   1.412   1_545  A
C895        C902   1.445       .  S
C896       C1847   1.412       .  A
C896        C897   1.405       .  A
C897       C1850   1.405   1_556  A
C897        H900   1.084       .  S
C898       C1849   1.404   1_544  A
C901        N903   1.157       .  T
C902        N904   1.157       .  T
C905        C906   1.398       .  A
C905        C910   1.405   1_556  A
C906        C907   1.396       .  A
C906        H911   1.084       .  S
C907        C908   1.417       .  A
C907        C914   1.445       .  S
C908        C909   1.409       .  A
C909        C910   1.401   1_556  A
C909        H912   1.084       .  S
C913        N915   1.157       .  T
C914        N916   1.158       .  T
C917       C1870   1.407       .  A
C917        C922   1.415       .  A
C918       C1869   1.407   1_545  A
C918        C919   1.405       .  A
C918        H923   1.085       .  S
C919        C920   1.414       .  A
C919        C926   1.442       .  S
C920        C921   1.404       .  A
C921       C1874   1.399   1_545  A
C921        H924   1.085       .  S
C922       C1873   1.399       .  A
C922        C925   1.444       .  S
C925        N927   1.157       .  T
C926        N928   1.157       .  T
C929        C930   1.407       .  A
C929        C934   1.412       .  A
C930        C931   1.395       .  A
C930        H935   1.084       .  S
C931        C932   1.407       .  A
C931        C938   1.445       .  S
C932        C933   1.404       .  A
C933        C934   1.407       .  A
C933        H936   1.084       .  S
C934        C937   1.442       .  S
C937        N939   1.157       .  T
C938        N940   1.157       .  T
C941        C942   1.402       .  A
C941        C946   1.403       .  A
C942        C943   1.407       .  A
C942        H947   1.085       .  S
C943        C944   1.421       .  A
C943        C950   1.444       .  S
C944        C945   1.414       .  A
C945        C946   1.395       .  A
C945        H948   1.079       .  S
C946        C949   1.446       .  S
C949        N951   1.157       .  T
C950        N952   1.157       .  T
Zn953       O957   1.978       .  S
Zn953       O958   2.039       .  S
Zn953       O962   2.047       .  S
Zn953       O969   2.016       .  S
Zn954       O957   1.939       .  S
Zn954       O959   2.017       .  S
Zn954       O961   2.002       .  S
Zn954       O965   2.013       .  S
Zn955       O957   1.949       .  S
Zn955       O960   2.002       .  S
Zn955       O963   2.026       .  S
Zn955       O966   2.005       .  S
Zn956       O957   1.961       .  S
Zn956       O964   2.014       .  S
Zn956       O967   2.025       .  S
Zn956       O968   1.998       .  S
O958        C970   1.274       .  A
O959        C971   1.274       .  A
O960        C972   1.273       .  A
O961        C970   1.273       .  A
O962        C972   1.276       .  A
O963        C971   1.274       .  A
O964        C973   1.273       .  A
O965        C974   1.272       .  A
O966        C973   1.272       .  A
O967        C974   1.272       .  A
O968        C975   1.272       .  A
O969        C975   1.274       .  A
C970       C1417   1.473       .  S
C971       C1393   1.491       .  S
C972       C1372   1.480       .  S
C973       C1357   1.488       .  S
C974       C1408   1.473       .  S
C975       C1384   1.483       .  S
C976        C977   1.528       .  S
C976        C982   1.534       .  S
C976        C980   1.539       .  S
C976       C1345   1.540       .  S
C977        H984   1.087       .  S
C977        C978   1.360       .  D
C978        C979   1.544       .  S
C978       C1405   1.488       .  S
C979        C983   1.541       .  S
C979        C981   1.556       .  S
C979        H985   1.105       .  S
C980        H986   1.074       .  S
C980        C981   1.375       .  D
C981        C990   1.502       .  S
C982        H987   1.087       .  S
C982        C983   1.365       .  D
C983       C1396   1.492       .  S
C988        C989   1.545       .  S
C988        C994   1.543       .  S
C988        C992   1.538       .  S
C988       C1333   1.544       .  S
C989        H996   1.081       .  S
C989        C990   1.377       .  D
C990        C991   1.553       .  S
C991       C1471   1.526       .  S
C991       C1469   1.533       .  S
C991       H1473   1.105       .  S
C992       H1474   1.086       .  S
C992       C1469   1.365       .  D
C993       C1467   1.533       .  S
C993       C1468   1.365       .  D
C993       C1369   1.485       .  S
C994       H1475   1.083       .  S
C994       C1471   1.352       .  D
C995       C1467   1.526       .  S
C995       C1470   1.353       .  D
C995       C1381   1.471       .  S
H997       C1467   1.105       .  S
H998       C1468   1.086       .  S
H999       C1470   1.083       .  S
Zn1000     O1004   1.971       .  S
Zn1000     O1005   2.050       .  S
Zn1000     O1009   2.031       .  S
Zn1000     O1016   2.030       .  S
Zn1001     O1004   1.947       .  S
Zn1001     O1006   1.999       .  S
Zn1001     O1008   2.007       .  S
Zn1001     O1012   2.009       .  S
Zn1002     O1004   1.964       .  S
Zn1002     O1483   2.028       .  S
Zn1002     O1486   2.036       .  S
Zn1002     O1013   2.001       .  S
Zn1003     O1004   1.966       .  S
Zn1003     O1011   2.047       .  S
Zn1003     O1014   2.037       .  S
Zn1003     O1015   2.006       .  S
O1005      C1017   1.278       .  A
O1006      C1018   1.271       .  A
O1007     Zn1478   2.032       .  S
O1007      C1495   1.275       .  A
O1008      C1017   1.273       .  A
O1009      C1019   1.275       .  A
O1010     Zn1478   2.034       .  S
O1010      C1494   1.275       .  A
O1011      C1020   1.276       .  A
O1012      C1021   1.271       .  A
O1013      C1020   1.273       .  A
O1014      C1021   1.275       .  A
O1015      C1022   1.275       .  A
O1016      C1022   1.275       .  A
C1017      C1321   1.495       .  S
C1018      O1486   1.275       .  A
C1018      C1785   1.484   1_554  S
C1019      O1483   1.275       .  A
C1019      C1776   1.500       .  S
C1020      C1336   1.486       .  S
C1021      C1285   1.479       .  S
C1022      C1276   1.485       .  S
C1023      C1024   1.548       .  S
C1023      C1029   1.533       .  S
C1023      C1027   1.533       .  S
C1023      C1261   1.543       .  S
C1024      H1031   1.082       .  S
C1024      C1025   1.362       .  D
C1025      C1026   1.530       .  S
C1025      C1312   1.478       .  S
C1026      C1030   1.542       .  S
C1026      C1028   1.555       .  S
C1026      H1032   1.106       .  S
C1027      H1033   1.081       .  S
C1027      C1028   1.373       .  D
C1028      C1037   1.502       .  S
C1029      H1034   1.087       .  S
C1029      C1030   1.363       .  D
C1030      C1297   1.492       .  S
C1035      C1036   1.535       .  S
C1035      C1041   1.533       .  S
C1035      C1039   1.542       .  S
C1035      C1360   1.536       .  S
C1036      H1043   1.082       .  S
C1036      C1037   1.373       .  D
C1037      C1038   1.553       .  S
C1038      C1042   1.545       .  S
C1038      C1040   1.537       .  S
C1038      H1044   1.105       .  S
C1039      H1045   1.082       .  S
C1039      C1040   1.362       .  D
C1040      C1273   1.492       .  S
C1041      H1046   1.086       .  S
C1041      C1042   1.359       .  D
C1042      C1288   1.482       .  S
Zn1047     O1051   1.957       .  S
Zn1047     O1052   2.002       .  S
Zn1047     O1056   2.005       .  S
Zn1047     O1063   2.005       .  S
Zn1048     O1051   1.963       .  S
Zn1048     O1053   2.034       .  S
Zn1048     O1055   2.018       .  S
Zn1048     O1059   2.025       .  S
Zn1049     O1051   1.976       .  S
Zn1049     O1054   2.045       .  S
Zn1049     O1057   2.025       .  S
Zn1049     O1060   2.048       .  S
Zn1050     O1051   1.960       .  S
Zn1050     O1058   2.008       .  S
Zn1050     O1061   2.037       .  S
Zn1050     O1062   2.030       .  S
O1052      C1064   1.271       .  A
O1053      C1065   1.275       .  A
O1054      C1066   1.276       .  A
O1055      C1064   1.275       .  A
O1056      C1066   1.271       .  A
O1057      C1065   1.276       .  A
O1058      C1067   1.274       .  A
O1059      C1068   1.274       .  A
O1060      C1067   1.277       .  A
O1061      C1068   1.275       .  A
O1062      C1069   1.274       .  A
O1063      C1069   1.271       .  A
C1064      C1225   1.486   1_554  S
C1065      C1201   1.478       .  S
C1066      C1240   1.499       .  S
C1067      C1249   1.484       .  S
C1068      C1216   1.480   1_554  S
C1069      C1348   1.470       .  S
C1070      C1071   1.541       .  S
C1070      C1076   1.544       .  S
C1070      C1074   1.530       .  S
C1070      C1420   1.542       .  S
C1071      H1078   1.083       .  S
C1071      C1072   1.358       .  D
C1072      C1073   1.535       .  S
C1072      C1237   1.485       .  S
C1073      C1077   1.538       .  S
C1073      C1075   1.552       .  S
C1073      H1079   1.107       .  S
C1074      H1080   1.081       .  S
C1074      C1075   1.373       .  D
C1075      C1084   1.501       .  S
C1076      H1081   1.086       .  S
C1076      C1077   1.368       .  D
C1077      C1252   1.483       .  S
C1082      C1083   1.547       .  S
C1082      C1088   1.534       .  S
C1082      C1086   1.535       .  S
C1082      C1189   1.536       .  S
C1083      H1090   1.077       .  S
C1083      C1084   1.377       .  D
C1084      C1085   1.552       .  S
C1085      C1089   1.539       .  S
C1085      C1087   1.538       .  S
C1085      H1091   1.103       .  S
C1086      H1092   1.087       .  S
C1086      C1087   1.356       .  D
C1087      C1213   1.483       .  S
C1088      H1093   1.085       .  S
C1088      C1089   1.362       .  D
C1089      C1228   1.491       .  S
Zn1094     O1098   1.950       .  S
Zn1094     O1099   1.996       .  S
Zn1094     O1103   1.999       .  S
Zn1094     O1110   2.014       .  S
Zn1095     O1098   1.968       .  S
Zn1095     O1100   2.027       .  S
Zn1095     O1102   2.044       .  S
Zn1095     O1106   2.046       .  S
Zn1096     O1098   1.968       .  S
Zn1096     O1101   2.040       .  S
Zn1096     O1104   2.042       .  S
Zn1096     O1107   2.002       .  S
Zn1097     O1098   1.965       .  S
Zn1097     O1105   2.024       .  S
Zn1097     O1108   2.003       .  S
Zn1097     O1109   2.026       .  S
O1099      C1111   1.272       .  A
O1100      C1112   1.275       .  A
O1101      C1113   1.274       .  A
O1102      C1111   1.278       .  A
O1103      C1113   1.271       .  A
O1104      C1112   1.275       .  A
O1105      C1114   1.273       .  A
O1106      C1115   1.277       .  A
O1107      C1114   1.276       .  A
O1108      C1115   1.273       .  A
O1109      C1116   1.273       .  A
O1110      C1116   1.271       .  A
C1111      C1264   1.492       .  S
C1112      C1177   1.499   1_565  S
C1113      C1165   1.481       .  S
C1114      C1192   1.493       .  S
C1115      C1156   1.486       .  S
C1116      C1141   1.473       .  S
C1117      C1118   1.533       .  S
C1117      C1123   1.548       .  S
C1117      C1121   1.531       .  S
C1117      C1324   1.549       .  S
C1118      H1125   1.086       .  S
C1118      C1119   1.367       .  D
C1119      C1120   1.548       .  S
C1119      C1180   1.504       .  S
C1120      C1124   1.536       .  S
C1120      C1122   1.558       .  S
C1120      H1126   1.105       .  S
C1121      H1127   1.081       .  S
C1121      C1122   1.373       .  D
C1122      C1131   1.502       .  S
C1123      H1128   1.080       .  S
C1123      C1124   1.364       .  D
C1124      C1168   1.488       .  S
C1129      C1130   1.541       .  S
C1129      C1135   1.551       .  S
C1129      C1133   1.536       .  S
C1129      C1204   1.546       .  S
C1130      H1137   1.083       .  S
C1130      C1131   1.373       .  D
C1131      C1132   1.550       .  S
C1132      C1136   1.530       .  S
C1132      C1134   1.534       .  S
C1132      H1138   1.106       .  S
C1133      H1139   1.087       .  S
C1133      C1134   1.360       .  D
C1134      C1144   1.479       .  S
C1135      H1140   1.080       .  S
C1135      C1136   1.366       .  D
C1136      C1153   1.487       .  S
C1141      C1142   1.402       .  A
C1141      C1146   1.410       .  A
C1142      C1143   1.400       .  A
C1142      H1147   1.085       .  S
C1143      C1144   1.411       .  A
C1143      C1150   1.444       .  S
C1144      C1145   1.402       .  A
C1145      C1146   1.404       .  A
C1145      H1148   1.085       .  S
C1146      C1149   1.443       .  S
C1149      N1151   1.157       .  T
C1150      N1152   1.157       .  T
C1153      C1154   1.404       .  A
C1153      C1158   1.409       .  A
C1154      C1155   1.404       .  A
C1154      H1159   1.084       .  S
C1155      C1162   1.444       .  S
C1156      C1157   1.406       .  A
C1157      H1160   1.085       .  S
C1158      C1161   1.444       .  S
C1162      N1164   1.157       .  T
C1165      C1166   1.403       .  A
C1165      C1646   1.411       .  A
C1166      C1167   1.400       .  A
C1166      H1171   1.085       .  S
C1167      C1644   1.411       .  A
C1167      C1174   1.441       .  S
C1168      C1643   1.411   1_554  A
C1168      C1169   1.407       .  A
C1169      C1170   1.403   1_554  A
C1169      H1172   1.085       .  S
C1170      C1641   1.411       .  A
C1170      C1173   1.444   1_556  S
C1173      N1175   1.157       .  T
C1174      N1176   1.157       .  T
C1178      C1655   1.412       .  A
C1179      C1654   1.412   1_554  A
C1179      C1180   1.416       .  A
C1179      C1186   1.442       .  S
C1180      C1181   1.408   1_554  A
C1181      C1658   1.397       .  A
C1181      H1184   1.084       .  S
C1182      C1657   1.397       .  A
C1182      C1185   1.445       .  S
C1186      N1188   1.157       .  T
C1189      C1190   1.412       .  A
C1189      C1194   1.421       .  A
C1190      C1191   1.409       .  A
C1190      H1195   1.079       .  S
C1191      C1192   1.418       .  A
C1191      C1198   1.445       .  S
C1192      C1193   1.401       .  A
C1193      C1194   1.389       .  A
C1193      H1196   1.085       .  S
C1194      C1197   1.446       .  S
C1197      N1199   1.157       .  T
C1198      N1200   1.158       .  T
C1201      C1202   1.400       .  A
C1201      C1206   1.406       .  A
C1202      C1203   1.406       .  A
C1202      H1207   1.085       .  S
C1203      C1204   1.425       .  A
C1203      C1210   1.445       .  S
C1204      C1205   1.413       .  A
C1205      C1206   1.400       .  A
C1205      H1208   1.076       .  S
C1206      C1209   1.445       .  S
C1209      N1211   1.157       .  T
C1210      N1212   1.157       .  T
C1213      C1214   1.403       .  A
C1213      C1694   1.413       .  A
C1214      C1215   1.404       .  A
C1214      H1219   1.085       .  S
C1215      C1692   1.412       .  A
C1215      C1222   1.443       .  S
C1216      C1691   1.412       .  A
C1216      C1217   1.402   1_556  A
C1217      C1218   1.402   1_554  A
C1217      H1220   1.085       .  S
C1218      C1689   1.412       .  A
C1218      C1221   1.443       .  S
C1221      N1223   1.157   1_556  T
C1222      N1224   1.157       .  T
C1225      C1702   1.404       .  A
C1226      C1701   1.404       .  A
C1226      H1231   1.085       .  S
C1227      C1228   1.415   1_545  A
C1227      C1234   1.444       .  S
C1228      C1705   1.402       .  A
C1229      C1704   1.402       .  A
C1229      C1230   1.399       .  A
C1229      H1232   1.083       .  S
C1230      C1233   1.443   1_556  S
C1233      N1235   1.157       .  T
C1237      C1238   1.400       .  A
C1237      C1242   1.406       .  A
C1238      C1239   1.398       .  A
C1238      H1243   1.086       .  S
C1239      C1246   1.444       .  S
C1240      C1241   1.412       .  A
C1241      H1244   1.084       .  S
C1242      C1245   1.441       .  S
C1245      N1247   1.156       .  T
C1246      N1248   1.157       .  T
C1249      C1250   1.406       .  A
C1249      C1254   1.414       .  A
C1250      C1251   1.406       .  A
C1250      H1255   1.084       .  S
C1251      C1252   1.410       .  A
C1251      C1258   1.443       .  S
C1252      C1253   1.400       .  A
C1253      C1254   1.399       .  A
C1253      H1256   1.084       .  S
C1254      C1257   1.445       .  S
C1257      N1259   1.157       .  T
C1258      N1260   1.157       .  T
C1261      C1262   1.409       .  A
C1261      C1266   1.422       .  A
C1262      C1263   1.398   1_655  A
C1262      H1267   1.079       .  S
C1263      C1264   1.417       .  A
C1263      C1270   1.446       .  S
C1264      C1265   1.404       .  A
C1265      C1266   1.404   1_455  A
C1265      H1268   1.085       .  S
C1266      C1269   1.445       .  S
C1269      N1271   1.157       .  T
C1270      N1272   1.158       .  T
C1273      C1274   1.404       .  A
C1273      C1278   1.415       .  A
C1274      C1275   1.404       .  A
C1274      H1279   1.083       .  S
C1275      C1282   1.444       .  S
C1276      C1277   1.403       .  A
C1277      H1280   1.085       .  S
C1278      C1281   1.445   1_565  S
C1281      N1283   1.157       .  T
C1282      N1284   1.157       .  T
C1285      C1286   1.403       .  A
C1285      C1290   1.412       .  A
C1286      C1287   1.400       .  A
C1286      H1291   1.085       .  S
C1287      C1288   1.411       .  A
C1287      C1294   1.443       .  S
C1288      C1289   1.404       .  A
C1289      C1290   1.405       .  A
C1289      H1292   1.085       .  S
C1290      C1293   1.444       .  S
C1293      N1295   1.157       .  T
C1294      N1296   1.157       .  T
C1297      C1298   1.404       .  A
C1297      C1302   1.408       .  A
C1298      C1299   1.400       .  A
C1298      H1303   1.085       .  S
C1299      C1782   1.444       .  S
C1300      C1495   1.500       .  S
C1300      C1301   1.412       .  A
C1301      H1304   1.084       .  S
C1305      N1307   1.157       .  T
C1306      C1775   1.445       .  S
C1306      N1308   1.157       .  T
C1309      C1494   1.484       .  S
C1309      C1310   1.405       .  A
C1309      C1314   1.417       .  A
C1310      C1311   1.401       .  A
C1310      H1315   1.084       .  S
C1311      C1312   1.409       .  A
C1311      C1318   1.444       .  S
C1312      C1313   1.400       .  A
C1313      C1314   1.401       .  A
C1313      H1316   1.085       .  S
C1314      C1793   1.445       .  S
C1317      C1790   1.445       .  S
C1317      N1319   1.157       .  T
C1318      N1320   1.157       .  T
C1321      C1322   1.404   1_655  A
C1321      C1326   1.416       .  A
C1322      C1323   1.407       .  A
C1322      H1327   1.085   1_455  S
C1323      C1324   1.423       .  A
C1323      C1330   1.445       .  S
C1324      C1325   1.411       .  A
C1325      C1326   1.400   1_455  A
C1325      H1328   1.075       .  S
C1326      C1329   1.446       .  S
C1329      N1331   1.158       .  T
C1330      N1332   1.157       .  T
C1333      C1334   1.414       .  A
C1333      C1338   1.421       .  A
C1334      C1335   1.394       .  A
C1334      H1339   1.078       .  S
C1335      C1336   1.409       .  A
C1335      C1342   1.447       .  S
C1336      C1337   1.405       .  A
C1337      C1338   1.410       .  A
C1337      H1340   1.084       .  S
C1338      C1341   1.443       .  S
C1341      N1343   1.157       .  T
C1342      N1820   1.158       .  T
N1344      C1818   1.158       .  T
C1345      C1346   1.415       .  A
C1345      C1350   1.425       .  A
C1346      C1347   1.405       .  A
C1346      H1351   1.077       .  S
C1347      C1348   1.405       .  A
C1347      C1354   1.444       .  S
C1348      C1349   1.394       .  A
C1349      C1350   1.396       .  A
C1349      H1352   1.086       .  S
C1350      C1353   1.446       .  S
C1353      N1355   1.157       .  T
C1354      N1356   1.157       .  T
C1357      C1358   1.407       .  A
C1357      C1362   1.414       .  A
C1358      C1359   1.403       .  A
C1358      H1363   1.085       .  S
C1359      C1360   1.417       .  A
C1359      C1366   1.445       .  S
C1360      C1361   1.409       .  A
C1361      C1362   1.395       .  A
C1361      H1364   1.080       .  S
C1362      C1365   1.445       .  S
C1365      N1367   1.157       .  T
C1366      N1368   1.157       .  T
C1369      C1370   1.402       .  A
C1369      C1374   1.411       .  A
C1370      C1371   1.400       .  A
C1370      H1375   1.082       .  S
C1371      C1378   1.445       .  S
C1372      C1373   1.405       .  A
C1373      H1376   1.084       .  S
C1374      C1853   1.444       .  S
C1377      C1850   1.444       .  S
C1377      N1379   1.157       .  T
C1378      N1380   1.157       .  T
C1381      C1382   1.398       .  A
C1381      C1386   1.405       .  A
C1382      C1383   1.396       .  A
C1382      H1387   1.084       .  S
C1383      C1384   1.417       .  A
C1383      C1390   1.445       .  S
C1384      C1385   1.409       .  A
C1385      C1386   1.401       .  A
C1385      H1388   1.084       .  S
C1386      C1865   1.444       .  S
C1389      C1862   1.444       .  S
C1389      N1391   1.157       .  T
C1390      N1392   1.158       .  T
C1393      C1398   1.415       .  A
C1394      C1395   1.405       .  A
C1394      H1399   1.085       .  S
C1395      C1396   1.414       .  A
C1395      C1402   1.442       .  S
C1396      C1397   1.404       .  A
C1397      H1400   1.085       .  S
C1398      C1401   1.444       .  S
C1401      N1403   1.157       .  T
C1402      N1404   1.157       .  T
C1405      C1406   1.407       .  A
C1405      C1410   1.412       .  A
C1406      C1407   1.395       .  A
C1406      H1411   1.084       .  S
C1407      C1408   1.407       .  A
C1407      C1414   1.445       .  S
C1408      C1409   1.404       .  A
C1409      C1410   1.407       .  A
C1409      H1412   1.084       .  S
C1410      C1413   1.442       .  S
C1413      N1415   1.157       .  T
C1414      N1416   1.157       .  T
C1417      C1418   1.402       .  A
C1417      C1422   1.403       .  A
C1418      C1419   1.408       .  A
C1418      H1423   1.085       .  S
C1419      C1420   1.421       .  A
C1419      C1426   1.444       .  S
C1420      C1421   1.414       .  A
C1421      C1422   1.395       .  A
C1421      H1424   1.079       .  S
C1422      C1425   1.446       .  S
C1425      N1427   1.157       .  T
C1426      N1428   1.157       .  T
Zn1429     O1433   1.977       .  S
Zn1429     O1434   2.039       .  S
Zn1429     O1438   2.045       .  S
Zn1429     O1445   2.015       .  S
Zn1430     O1433   1.939       .  S
Zn1430     O1435   2.015       .  S
Zn1430     O1437   2.002       .  S
Zn1430     O1441   2.012       .  S
Zn1431     O1433   1.950       .  S
Zn1431     O1436   2.003       .  S
Zn1431     O1439   2.025       .  S
Zn1431     O1442   2.006       .  S
Zn1432     O1433   1.960       .  S
Zn1432     O1440   2.015       .  S
Zn1432     O1443   2.025       .  S
Zn1432     O1444   1.998       .  S
O1434      C1446   1.274       .  A
O1435      C1447   1.274       .  A
O1436      C1448   1.273       .  A
O1437      C1446   1.273       .  A
O1438      C1448   1.276       .  A
O1439      C1447   1.274       .  A
O1440      C1449   1.273       .  A
O1441      C1450   1.272       .  A
O1442      C1449   1.272       .  A
O1443      C1450   1.272       .  A
O1444      C1451   1.272       .  A
O1445      C1451   1.274       .  A
C1446      C1893   1.474       .  S
C1447      C1869   1.490       .  S
C1448      C1848   1.480       .  S
C1449      C1833   1.488       .  S
C1450      C1884   1.473       .  S
C1451      C1860   1.482       .  S
C1452      C1453   1.528       .  S
C1452      C1458   1.535       .  S
C1452      C1456   1.539       .  S
C1452      C1821   1.540       .  S
C1453      H1460   1.087       .  S
C1453      C1454   1.360       .  D
C1454      C1455   1.543       .  S
C1454      C1881   1.487       .  S
C1455      C1459   1.541       .  S
C1455      C1457   1.555       .  S
C1455      H1461   1.106       .  S
C1456      H1462   1.074       .  S
C1456      C1457   1.375       .  D
C1457      C1466   1.502       .  S
C1458      H1463   1.087       .  S
C1458      C1459   1.366       .  D
C1459      C1872   1.492       .  S
C1464      C1465   1.545       .  S
C1464      C1470   1.543       .  S
C1464      C1468   1.537       .  S
C1464      C1809   1.544       .  S
C1465      H1472   1.081       .  S
C1465      C1466   1.377       .  D
C1466      C1467   1.553       .  S
C1469      C1845   1.486   1_554  S
C1471      C1857   1.471   1_554  S
Zn1476     O1480   1.970       .  S
Zn1476     O1481   2.048       .  S
Zn1476     O1485   2.031       .  S
Zn1476     O1492   2.029       .  S
Zn1477     O1480   1.948       .  S
Zn1477     O1482   2.000       .  S
Zn1477     O1484   2.008       .  S
Zn1477     O1488   2.011       .  S
Zn1478     O1480   1.965       .  S
Zn1478     O1489   2.002       .  S
Zn1479     O1480   1.966       .  S
Zn1479     O1487   2.045       .  S
Zn1479     O1490   2.040       .  S
Zn1479     O1491   2.006       .  S
O1481      C1493   1.277       .  A
O1482      C1494   1.271       .  A
O1484      C1493   1.273       .  A
O1485      C1495   1.275       .  A
O1487      C1496   1.276       .  A
O1488      C1497   1.272       .  A
O1489      C1496   1.273       .  A
O1490      C1497   1.275       .  A
O1491      C1498   1.275       .  A
O1492      C1498   1.275       .  A
C1493      C1797   1.495       .  S
C1496      C1812   1.485       .  S
C1497      C1761   1.480       .  S
C1498      C1752   1.485       .  S
C1499      C1500   1.547       .  S
C1499      C1505   1.534       .  S
C1499      C1503   1.533       .  S
C1499      C1737   1.543       .  S
C1500      H1507   1.082       .  S
C1500      C1501   1.362       .  D
C1501      C1502   1.531       .  S
C1501      C1788   1.478       .  S
C1502      C1506   1.543       .  S
C1502      C1504   1.556       .  S
C1502      H1508   1.106       .  S
C1503      H1509   1.081       .  S
C1503      C1504   1.373       .  D
C1504      C1513   1.502       .  S
C1505      H1510   1.087       .  S
C1505      C1506   1.364       .  D
C1506      C1773   1.495       .  S
C1511      C1512   1.536       .  S
C1511      C1517   1.534       .  S
C1511      C1515   1.542       .  S
C1511      C1836   1.537       .  S
C1512      H1519   1.082       .  S
C1512      C1513   1.373       .  D
C1513      C1514   1.552       .  S
C1514      C1518   1.545       .  S
C1514      C1516   1.537       .  S
C1514      H1520   1.104       .  S
C1515      H1521   1.081       .  S
C1515      C1516   1.362       .  D
C1516      C1749   1.492       .  S
C1517      H1522   1.086       .  S
C1517      C1518   1.359       .  D
C1518      C1764   1.482       .  S
Zn1523     O1527   1.958       .  S
Zn1523     O1528   2.003       .  S
Zn1523     O1532   2.005       .  S
Zn1523     O1539   2.007       .  S
Zn1524     O1527   1.963       .  S
Zn1524     O1529   2.034       .  S
Zn1524     O1531   2.017       .  S
Zn1524     O1535   2.022       .  S
Zn1525     O1527   1.976       .  S
Zn1525     O1530   2.041       .  S
Zn1525     O1533   2.026       .  S
Zn1525     O1536   2.050       .  S
Zn1526     O1527   1.960       .  S
Zn1526     O1534   2.008       .  S
Zn1526     O1537   2.037       .  S
Zn1526     O1538   2.030       .  S
O1528      C1540   1.271       .  A
O1529      C1541   1.275       .  A
O1530      C1542   1.276       .  A
O1531      C1540   1.274       .  A
O1532      C1542   1.271       .  A
O1533      C1541   1.276       .  A
O1534      C1543   1.274       .  A
O1535      C1544   1.274       .  A
O1536      C1543   1.277       .  A
O1537      C1544   1.275       .  A
O1538      C1545   1.274       .  A
O1539      C1545   1.271       .  A
C1540      C1701   1.487       .  S
C1541      C1677   1.478       .  S
C1542      C1716   1.498       .  S
C1543      C1725   1.484       .  S
C1544      C1692   1.480       .  S
C1545      C1824   1.470       .  S
C1546      C1547   1.541       .  S
C1546      C1552   1.544       .  S
C1546      C1550   1.530       .  S
C1546      C1896   1.542       .  S
C1547      H1554   1.083       .  S
C1547      C1548   1.357       .  D
C1548      C1549   1.535       .  S
C1548      C1713   1.485       .  S
C1549      C1553   1.538       .  S
C1549      C1551   1.552       .  S
C1549      H1555   1.107       .  S
C1550      H1556   1.081       .  S
C1550      C1551   1.373       .  D
C1551      C1560   1.500       .  S
C1552      H1557   1.086       .  S
C1552      C1553   1.369       .  D
C1553      C1728   1.484       .  S
C1558      C1559   1.546       .  S
C1558      C1564   1.534       .  S
C1558      C1562   1.535       .  S
C1558      C1665   1.535       .  S
C1559      H1566   1.077       .  S
C1559      C1560   1.377       .  D
C1560      C1561   1.551       .  S
C1561      C1565   1.540       .  S
C1561      C1563   1.538       .  S
C1561      H1567   1.103       .  S
C1562      H1568   1.087       .  S
C1562      C1563   1.356       .  D
C1563      C1689   1.484       .  S
C1564      H1569   1.085       .  S
C1564      C1565   1.362       .  D
C1565      C1704   1.492       .  S
Zn1570     O1574   1.950       .  S
Zn1570     O1575   1.995       .  S
Zn1570     O1579   2.000       .  S
Zn1570     O1586   2.012       .  S
Zn1571     O1574   1.967       .  S
Zn1571     O1576   2.025       .  S
Zn1571     O1578   2.043       .  S
Zn1571     O1582   2.045       .  S
Zn1572     O1574   1.967       .  S
Zn1572     O1577   2.037       .  S
Zn1572     O1580   2.042       .  S
Zn1572     O1583   1.997       .  S
Zn1573     O1574   1.966       .  S
Zn1573     O1581   2.027       .  S
Zn1573     O1584   2.007       .  S
Zn1573     O1585   2.030       .  S
O1575      C1587   1.272       .  A
O1576      C1588   1.275       .  A
O1577      C1589   1.274       .  A
O1578      C1587   1.278       .  A
O1579      C1589   1.271       .  A
O1580      C1588   1.275       .  A
O1581      C1590   1.274       .  A
O1582      C1591   1.277       .  A
O1583      C1590   1.275       .  A
O1584      C1591   1.274       .  A
O1585      C1592   1.273       .  A
O1586      C1592   1.270       .  A
C1587      C1740   1.491       .  S
C1588      C1653   1.499       .  S
C1589      C1641   1.481       .  S
C1590      C1668   1.492       .  S
C1591      C1632   1.486       .  S
C1592      C1617   1.473       .  S
C1593      C1594   1.533       .  S
C1593      C1599   1.547       .  S
C1593      C1597   1.531       .  S
C1593      C1800   1.549       .  S
C1594      H1601   1.086       .  S
C1594      C1595   1.368       .  D
C1595      C1596   1.549       .  S
C1595      C1656   1.506       .  S
C1596      C1600   1.536       .  S
C1596      C1598   1.558       .  S
C1596      H1602   1.105       .  S
C1597      H1603   1.081       .  S
C1597      C1598   1.374       .  D
C1598      C1607   1.502       .  S
C1599      H1604   1.080       .  S
C1599      C1600   1.363       .  D
C1600      C1644   1.488       .  S
C1605      C1606   1.541       .  S
C1605      C1611   1.551       .  S
C1605      C1609   1.535       .  S
C1605      C1680   1.546       .  S
C1606      H1613   1.083       .  S
C1606      C1607   1.373       .  D
C1607      C1608   1.550       .  S
C1608      C1612   1.530       .  S
C1608      C1610   1.534       .  S
C1608      H1614   1.106       .  S
C1609      H1615   1.087       .  S
C1609      C1610   1.359       .  D
C1610      C1620   1.479       .  S
C1611      H1616   1.080       .  S
C1611      C1612   1.366       .  D
C1612      C1629   1.486       .  S
C1617      C1618   1.402       .  A
C1617      C1622   1.410       .  A
C1618      C1619   1.400       .  A
C1618      H1623   1.085       .  S
C1619      C1620   1.411       .  A
C1619      C1626   1.445       .  S
C1620      C1621   1.402       .  A
C1621      C1622   1.404       .  A
C1621      H1624   1.085       .  S
C1622      C1625   1.443       .  S
C1625      N1627   1.157       .  T
C1626      N1628   1.157       .  T
C1629      C1630   1.404       .  A
C1629      C1634   1.409       .  A
C1630      C1631   1.404       .  A
C1630      H1635   1.084       .  S
C1631      C1638   1.444       .  S
C1632      C1633   1.406       .  A
C1633      H1636   1.085       .  S
C1634      C1637   1.444       .  S
C1638      N1640   1.157       .  T
C1641      C1642   1.403       .  A
C1642      C1643   1.400       .  A
C1642      H1647   1.085       .  S
C1643      C1650   1.441       .  S
C1644      C1645   1.407       .  A
C1645      C1646   1.403       .  A
C1645      H1648   1.085       .  S
C1646      C1649   1.444       .  S
C1649      N1651   1.157       .  T
C1650      N1652   1.156       .  T
C1655      C1656   1.417       .  A
C1655      C1662   1.442       .  S
C1656      C1657   1.408       .  A
C1657      H1660   1.084       .  S
C1658      C1661   1.445       .  S
C1662      N1664   1.157       .  T
C1665      C1666   1.412       .  A
C1665      C1670   1.420       .  A
C1666      C1667   1.409       .  A
C1666      H1671   1.079       .  S
C1667      C1668   1.418       .  A
C1667      C1674   1.445       .  S
C1668      C1669   1.401       .  A
C1669      C1670   1.388       .  A
C1669      H1672   1.085       .  S
C1670      C1673   1.446       .  S
C1673      N1675   1.157       .  T
C1674      N1676   1.158       .  T
C1677      C1678   1.400       .  A
C1677      C1682   1.406       .  A
C1678      C1679   1.406       .  A
C1678      H1683   1.085       .  S
C1679      C1680   1.425       .  A
C1679      C1686   1.445       .  S
C1680      C1681   1.413       .  A
C1681      C1682   1.400       .  A
C1681      H1684   1.076       .  S
C1682      C1685   1.446       .  S
C1685      N1687   1.157       .  T
C1686      N1688   1.157       .  T
C1689      C1690   1.403       .  A
C1690      C1691   1.405       .  A
C1690      H1695   1.085       .  S
C1691      C1698   1.443       .  S
C1692      C1693   1.401       .  A
C1693      C1694   1.402       .  A
C1693      H1696   1.085       .  S
C1694      C1697   1.443       .  S
C1697      N1699   1.157       .  T
C1698      N1700   1.157       .  T
C1702      H1707   1.085       .  S
C1703      C1704   1.416   1_545  A
C1703      C1710   1.443       .  S
C1705      C1706   1.399       .  A
C1705      H1708   1.083       .  S
C1706      C1709   1.444       .  S
C1709      N1711   1.157       .  T
C1713      C1714   1.400       .  A
C1713      C1718   1.406       .  A
C1714      C1715   1.398       .  A
C1714      H1719   1.086       .  S
C1715      C1722   1.444       .  S
C1716      C1717   1.412       .  A
C1717      H1720   1.084       .  S
C1718      C1721   1.441       .  S
C1721      N1723   1.156       .  T
C1722      N1724   1.157       .  T
C1725      C1726   1.406       .  A
C1725      C1730   1.414       .  A
C1726      C1727   1.407       .  A
C1726      H1731   1.084       .  S
C1727      C1728   1.411       .  A
C1727      C1734   1.443       .  S
C1728      C1729   1.401       .  A
C1729      C1730   1.399       .  A
C1729      H1732   1.085       .  S
C1730      C1733   1.445       .  S
C1733      N1735   1.157       .  T
C1734      N1736   1.157       .  T
C1737      C1738   1.409       .  A
C1737      C1742   1.422       .  A
C1738      C1739   1.398   1_655  A
C1738      H1743   1.080       .  S
C1739      C1740   1.417       .  A
C1739      C1746   1.447       .  S
C1740      C1741   1.404       .  A
C1741      C1742   1.404   1_455  A
C1741      H1744   1.085       .  S
C1742      C1745   1.445       .  S
C1745      N1747   1.157       .  T
C1746      N1748   1.158       .  T
C1749      C1750   1.404       .  A
C1749      C1754   1.415       .  A
C1750      C1751   1.404       .  A
C1750      H1755   1.083       .  S
C1751      C1758   1.443       .  S
C1752      C1753   1.403       .  A
C1753      H1756   1.085       .  S
C1754      C1757   1.445   1_565  S
C1757      N1759   1.157       .  T
C1758      N1760   1.157       .  T
C1761      C1762   1.403       .  A
C1761      C1766   1.412       .  A
C1762      C1763   1.401       .  A
C1762      H1767   1.085       .  S
C1763      C1764   1.411       .  A
C1763      C1770   1.443       .  S
C1764      C1765   1.404       .  A
C1765      C1766   1.405       .  A
C1765      H1768   1.084       .  S
C1766      C1769   1.443       .  S
C1769      N1771   1.157       .  T
C1770      N1772   1.157       .  T
C1773      C1774   1.405       .  A
C1773      C1778   1.410       .  A
C1774      C1775   1.400   1_556  A
C1774      H1779   1.085       .  S
C1776      C1777   1.412   1_554  A
C1777      H1780   1.084       .  S
C1781      N1783   1.157       .  T
C1782      N1784   1.157       .  T
C1785      C1786   1.405       .  A
C1785      C1790   1.417   1_556  A
C1786      C1787   1.401       .  A
C1786      H1791   1.084       .  S
C1787      C1788   1.409       .  A
C1787      C1794   1.444       .  S
C1788      C1789   1.399       .  A
C1789      C1790   1.400   1_556  A
C1789      H1792   1.085       .  S
C1793      N1795   1.157       .  T
C1794      N1796   1.157       .  T
C1797      C1798   1.405   1_655  A
C1797      C1802   1.415       .  A
C1798      C1799   1.407       .  A
C1798      H1803   1.085   1_455  S
C1799      C1800   1.423       .  A
C1799      C1806   1.445       .  S
C1800      C1801   1.411       .  A
C1801      C1802   1.400   1_455  A
C1801      H1804   1.075       .  S
C1802      C1805   1.446       .  S
C1805      N1807   1.158       .  T
C1806      N1808   1.157       .  T
C1809      C1810   1.414       .  A
C1809      C1814   1.421       .  A
C1810      C1811   1.394       .  A
C1810      H1815   1.078       .  S
C1811      C1812   1.409       .  A
C1811      C1818   1.447       .  S
C1812      C1813   1.404       .  A
C1813      C1814   1.409       .  A
C1813      H1816   1.085       .  S
C1814      C1817   1.443       .  S
C1817      N1819   1.157       .  T
C1821      C1822   1.415       .  A
C1821      C1826   1.425       .  A
C1822      C1823   1.405       .  A
C1822      H1827   1.077       .  S
C1823      C1824   1.405       .  A
C1823      C1830   1.444       .  S
C1824      C1825   1.395       .  A
C1825      C1826   1.396       .  A
C1825      H1828   1.086       .  S
C1826      C1829   1.446       .  S
C1829      N1831   1.157       .  T
C1830      N1832   1.157       .  T
C1833      C1834   1.407       .  A
C1833      C1838   1.414       .  A
C1834      C1835   1.403       .  A
C1834      H1839   1.085       .  S
C1835      C1836   1.418       .  A
C1835      C1842   1.445       .  S
C1836      C1837   1.410       .  A
C1837      C1838   1.396       .  A
C1837      H1840   1.079       .  S
C1838      C1841   1.446       .  S
C1841      N1843   1.157       .  T
C1842      N1844   1.157       .  T
C1845      C1846   1.402       .  A
C1845      C1850   1.411   1_556  A
C1846      C1847   1.400       .  A
C1846      H1851   1.081       .  S
C1847      C1854   1.445       .  S
C1848      C1849   1.405       .  A
C1849      H1852   1.085       .  S
C1853      N1855   1.157       .  T
C1854      N1856   1.157       .  T
C1857      C1858   1.398       .  A
C1857      C1862   1.405   1_556  A
C1858      C1859   1.395       .  A
C1858      H1863   1.084       .  S
C1859      C1860   1.416       .  A
C1859      C1866   1.445       .  S
C1860      C1861   1.408       .  A
C1861      C1862   1.401   1_556  A
C1861      H1864   1.084       .  S
C1865      N1867   1.157       .  T
C1866      N1868   1.158       .  T
C1869      C1874   1.415       .  A
C1870      C1871   1.405       .  A
C1870      H1875   1.085       .  S
C1871      C1872   1.414       .  A
C1871      C1878   1.442       .  S
C1872      C1873   1.404       .  A
C1873      H1876   1.085       .  S
C1874      C1877   1.444       .  S
C1877      N1879   1.157       .  T
C1878      N1880   1.157       .  T
C1881      C1882   1.406       .  A
C1881      C1886   1.412       .  A
C1882      C1883   1.395       .  A
C1882      H1887   1.084       .  S
C1883      C1884   1.407       .  A
C1883      C1890   1.445       .  S
C1884      C1885   1.404       .  A
C1885      C1886   1.407       .  A
C1885      H1888   1.084       .  S
C1886      C1889   1.442       .  S
C1889      N1891   1.157       .  T
C1890      N1892   1.157       .  T
C1893      C1894   1.402       .  A
C1893      C1898   1.403       .  A
C1894      C1895   1.408       .  A
C1894      H1899   1.085       .  S
C1895      C1896   1.421       .  A
C1895      C1902   1.443       .  S
C1896      C1897   1.414       .  A
C1897      C1898   1.395       .  A
C1897      H1900   1.079       .  S
C1898      C1901   1.446       .  S
C1901      N1903   1.157       .  T
C1902      N1904   1.157       .  T
