geometry optimzed in LAMMPS
_audit_creation_date              2020-11-30 
_audit_creation_method            'lammps2cif' 
_symmetry_space_group_name_H-M    'P1' 
_symmetry_Int_Tables_number       1 
_symmetry_cell_setting            triclinic 
loop_ 
_symmetry_equiv_pos_as_xyz 
  x,y,z 
_cell_length_a                    46.17370754 
_cell_length_b                    46.162155755159425 
_cell_length_c                    29.076795448152502 
_cell_angle_alpha                 90.59098324910212 
_cell_angle_beta                  89.77450919477612 
_cell_angle_gamma                 90.04883131796053 
loop_ 
_atom_site_label 
_atom_site_type_symbol 
_atom_site_fract_x 
_atom_site_fract_y 
_atom_site_fract_z 
_atom_site_charge 
C1          C  0.49332675  0.27936372  0.12714156     0.03300
C2          C  0.51337539  0.26289528  0.10119043    -0.12800
C3          C  0.51462594  0.23266465  0.10542360     0.00800
C4          C  0.49643158  0.21896102  0.13706763    -0.11400
C5          C  0.47669052  0.23483834  0.16411540     0.03300
C6          C  0.47482598  0.26506178  0.15840926    -0.10800
H7          H  0.52699912  0.27344900  0.07595829     0.08900
H8          H  0.49753281  0.19561509  0.14034000     0.06400
H9          H  0.45967340  0.27750639  0.17915119     0.06300
N10         N  0.53856988  0.65372446  0.08979490    -0.36400
N11         N  0.47651990  0.65384908  0.07612203    -0.57000
N12         N  0.47519822  0.59038008  0.08091970    -0.36400
N13         N  0.53853161  0.59032542  0.09305512    -0.57000
C14         C  0.53509459  0.68172849  0.07735441     0.27200
C15         C  0.56738425  0.64851353  0.09162164     0.27200
C16         C  0.44769940  0.59735785  0.09380440     0.27200
C17         C  0.48008042  0.56279731  0.09475883     0.27200
C18         C  0.48118979  0.68241910  0.06949798     0.35800
C19         C  0.44764460  0.64965151  0.07302507     0.35800
C20         C  0.56478542  0.59628421  0.11177968     0.35800
C21         C  0.53258025  0.56230725  0.10299308     0.35800
C22         C  0.56208898  0.69442129  0.07153824    -0.21700
C23         C  0.58239897  0.67342660  0.07998868    -0.21700
C24         C  0.43534681  0.57421129  0.11663618    -0.21700
C25         C  0.45588643  0.55279963  0.11813540    -0.21700
C26         C  0.45524244  0.69622440  0.06024751    -0.22800
C27         C  0.43401740  0.67547816  0.06239958    -0.22800
C28         C  0.57497673  0.57244582  0.13509759    -0.22800
C29         C  0.55432319  0.55128518  0.13061025    -0.22800
C30         C  0.50836884  0.69651155  0.07264680    -0.18100
C31         C  0.58041329  0.62250061  0.10663363    -0.18100
C32         C  0.50667268  0.54737010  0.09075111    -0.18100
C33         C  0.43317044  0.62395856  0.08590352    -0.18100
H34         H  0.56686479  0.71652329  0.06215015     0.14800
H35         H  0.60562342  0.67639486  0.07831771     0.14800
H36         H  0.41408322  0.57321561  0.13233028     0.14800
H37         H  0.45366335  0.53270695  0.13666267     0.14800
H38         H  0.45186776  0.71896849  0.05336821     0.13100
H39         H  0.41105305  0.67925606  0.05830735     0.13100
H40         H  0.59485523  0.57077019  0.15449411     0.13100
H41         H  0.55479496  0.53058731  0.14770314     0.13100
H42         H  0.52251410  0.63976672  0.10123630     0.26300
H43         H  0.48922475  0.60280506  0.06102395     0.26300
C44         C  0.84978794  0.61672583  0.14377230     0.03300
C45         C  0.86569433  0.63686911  0.11771124    -0.12800
C46         C  0.89609960  0.63768307  0.12001947     0.00800
C47         C  0.91049417  0.61910956  0.15008943    -0.11400
C48         C  0.89508905  0.59935893  0.17717490     0.03300
C49         C  0.86476871  0.59788801  0.17323327    -0.10800
H50         H  0.85453707  0.65080897  0.09382940     0.08900
H51         H  0.93392208  0.61991613  0.15213135     0.06400
H52         H  0.85273008  0.58274458  0.19417310     0.06300
C53         C  0.50362134  0.96380588  0.11988731     0.03300
C54         C  0.48369112  0.97991280  0.09371514    -0.12800
C55         C  0.48102002  0.01004635  0.10000716     0.00800
C56         C  0.49834839  0.02418616  0.13263979    -0.11400
C57         C  0.51809691  0.00869407  0.15934978     0.03300
C58         C  0.52056285  0.97861709  0.15294263    -0.10800
H59         H  0.47113405  0.96938316  0.06698062     0.08900
H60         H  0.49653289  0.04746598  0.13702123     0.06400
H61         H  0.53515053  0.96674359  0.17484497     0.06300
C62         C  0.16520702  0.61849085  0.14334025     0.03300
C63         C  0.14844076  0.59953972  0.11595896    -0.12800
C64         C  0.11815786  0.59953285  0.11899426     0.00800
C65         C  0.10445109  0.61838772  0.14996205    -0.11400
C66         C  0.12049188  0.63743477  0.17779551     0.03300
C67         C  0.15093805  0.63772057  0.17401097    -0.10800
H68         H  0.15888883  0.58551123  0.09083370     0.08900
H69         H  0.08100669  0.61828570  0.15222629     0.06400
H70         H  0.16345112  0.65204826  0.19598492     0.06300
C71         C  0.50117133  0.96188748  0.39342389     0.03300
C72         C  0.51944459  0.97616072  0.36183563    -0.12800
C73         C  0.51772772  0.00638020  0.35647252     0.00800
C74         C  0.49797749  0.02226079  0.38345175    -0.11400
C75         C  0.47966362  0.00858150  0.41484696     0.03300
C76         C  0.48112198  0.97835245  0.41945024    -0.10800
H77         H  0.53484288  0.96379759  0.34143255     0.08900
H78         H  0.49689481  0.04561242  0.38023593     0.06400
H79         H  0.46707553  0.96772791  0.44400840     0.06300
N80         N  0.47349517  0.58871321  0.44324019    -0.36400
N81         N  0.53601274  0.58633726  0.44037096    -0.57000
N82         N  0.53646023  0.64889970  0.42431945    -0.36400
N83         N  0.47371488  0.65120906  0.43328075    -0.57000
C84         C  0.47832719  0.56100663  0.45571981     0.27200
C85         C  0.44568366  0.59499268  0.45416203     0.27200
C86         C  0.56454290  0.64388276  0.43507205     0.27200
C87         C  0.53179379  0.67777527  0.42903371     0.27200
C88         C  0.53007939  0.55789137  0.43361681     0.35800
C89         C  0.56387336  0.59025137  0.42741392     0.35800
C90         C  0.44526996  0.64567412  0.42655463     0.35800
C91         C  0.47884260  0.67766290  0.41542184     0.35800
C92         C  0.45351915  0.54971984  0.47570286    -0.21700
C93         C  0.43286663  0.57113510  0.47452559    -0.21700
C94         C  0.57777009  0.66981951  0.44717428    -0.21700
C95         C  0.55718144  0.69119184  0.44315157    -0.21700
C96         C  0.55434237  0.54367048  0.41660805    -0.22800
C97         C  0.57579467  0.56413837  0.41293712    -0.22800
C98         C  0.43224347  0.66875907  0.40469004    -0.22800
C99         C  0.45353939  0.68896243  0.39742402    -0.22800
C100        C  0.50316647  0.54468139  0.44372293    -0.18100
C101        C  0.43080695  0.62028740  0.44078864    -0.18100
C102        C  0.50571839  0.69233989  0.41784107    -0.18100
C103        C  0.57898498  0.61688242  0.43048915    -0.18100
H104        H  0.45024504  0.52788302  0.48787486     0.14800
H105        H  0.41054806  0.56878829  0.48514812     0.14800
H106        H  0.60008673  0.67311464  0.45719389     0.14800
H107        H  0.56071263  0.71405756  0.44939547     0.14800
H108        H  0.55643066  0.52100350  0.40740789     0.13100
H109        H  0.59756142  0.56027858  0.40038938     0.13100
H110        H  0.40982247  0.67072461  0.39448802     0.13100
H111        H  0.45067886  0.70955486  0.38060429     0.13100
H112        H  0.48674348  0.60079248  0.42189879     0.26300
H113        H  0.52236128  0.63410762  0.40923683     0.26300
C114        C  0.16292784  0.62297553  0.41097328     0.03300
C115        C  0.14683542  0.60273703  0.43630959    -0.12800
C116        C  0.11676141  0.60066646  0.43115030     0.00800
C117        C  0.10275514  0.61837819  0.39940080    -0.11400
C118        C  0.11844913  0.63825978  0.37286334     0.03300
C119        C  0.14859252  0.64055088  0.37891774    -0.10800
H120        H  0.15760423  0.58924448  0.46127674     0.08900
H121        H  0.07944086  0.61687225  0.39579636     0.06400
H122        H  0.16081816  0.65612571  0.35907981     0.06300
C123        C  0.49283969  0.27637796  0.40299374     0.03300
C124        C  0.47437407  0.26291351  0.37058530    -0.12800
C125        C  0.47610603  0.23280614  0.36242836     0.00800
C126        C  0.49584508  0.21628035  0.38783170    -0.11400
C127        C  0.51440559  0.22946124  0.41958135     0.03300
C128        C  0.51319856  0.25944783  0.42634137    -0.10800
H129        H  0.45888642  0.27575917  0.35176087     0.08900
H130        H  0.49682516  0.19298444  0.38298125     0.06400
H131        H  0.52767541  0.26952917  0.45101959     0.06300
C132        C  0.84810456  0.62123446  0.40081990     0.03300
C133        C  0.86286143  0.60153375  0.37156186    -0.12800
C134        C  0.89332545  0.60075051  0.37062599     0.00800
C135        C  0.90894341  0.61921343  0.39992663    -0.11400
C136        C  0.89476996  0.63853260  0.42975848     0.03300
C137        C  0.86440507  0.63963550  0.42986340    -0.10800
H138        H  0.85076434  0.58776282  0.34814605     0.08900
H139        H  0.93241536  0.61853867  0.39951999     0.06400
H140        H  0.85347061  0.65417082  0.45369560     0.06300
C141        C  0.01035622  0.77638709  0.40596398     0.03300
C142        C  0.02925148  0.76146188  0.37566638    -0.12800
C143        C  0.02813830  0.73105384  0.37175172     0.00800
C144        C  0.00868210  0.71561243  0.39944394    -0.11400
C145        C  0.99006058  0.72999102  0.43011297     0.03300
C146        C  0.99069148  0.76035149  0.43276126    -0.10800
H147        H  0.04407878  0.77351376  0.35413042     0.08900
H148        H  0.00808772  0.69215893  0.39728199     0.06400
H149        H  0.97679583  0.77142767  0.45735963     0.06300
N150        N  0.02794863  0.15066233  0.45579073    -0.36400
N151        N  0.02958901  0.08758938  0.45746356    -0.57000
N152        N  0.96646738  0.08766709  0.45368807    -0.36400
N153        N  0.96445226  0.15077148  0.45867798    -0.57000
C154        C  0.05628458  0.14598672  0.46526310     0.27200
C155        C  0.02232641  0.17892523  0.46502468     0.27200
C156        C  0.97176028  0.05912116  0.46005725     0.27200
C157        C  0.93776247  0.09202323  0.46058449     0.27200
C158        C  0.05778041  0.09310064  0.44805067     0.35800
C159        C  0.02498592  0.05946046  0.44605863     0.35800
C160        C  0.96933931  0.17904757  0.44922337     0.35800
C161        C  0.93641309  0.14537070  0.44786768     0.35800
C162        C  0.06862626  0.17153674  0.48132348    -0.21700
C163        C  0.04728959  0.19227855  0.48100449    -0.21700
C164        C  0.94622011  0.04527114  0.47193381    -0.21700
C165        C  0.92482157  0.06593413  0.47214921    -0.21700
C166        C  0.07113242  0.06826250  0.43116360    -0.22800
C167        C  0.05041480  0.04696580  0.43007831    -0.22800
C168        C  0.94416258  0.19177366  0.43340575    -0.22800
C169        C  0.92337450  0.17050204  0.43248465    -0.22800
C170        C  0.07180840  0.12004165  0.45573464    -0.18100
C171        C  0.99615651  0.19360727  0.45499986    -0.18100
C172        C  0.92248172  0.11802344  0.45132727    -0.18100
C173        C  0.99824758  0.04473320  0.45044393    -0.18100
H174        H  0.09094151  0.17524378  0.49080298     0.14800
H175        H  0.05012315  0.21486131  0.49019927     0.14800
H176        H  0.94300611  0.02237849  0.47766340     0.14800
H177        H  0.90205361  0.06175627  0.47776664     0.14800
H178        H  0.09337860  0.06575689  0.42002536     0.13100
H179        H  0.05364322  0.02492882  0.41809870     0.13100
H180        H  0.94115811  0.21392240  0.42260640     0.13100
H181        H  0.90137386  0.17321259  0.42066390     0.13100
H182        H  0.01438979  0.13659995  0.43791827     0.26300
H183        H  0.98062944  0.10227449  0.43867815     0.26300
C184        C  0.33934288  0.12659298  0.39459588     0.03300
C185        C  0.35416496  0.14491925  0.36379707    -0.12800
C186        C  0.38442558  0.14312474  0.35864429     0.00800
C187        C  0.39989684  0.12336354  0.38544553    -0.11400
C188        C  0.38568563  0.10508465  0.41638043     0.03300
C189        C  0.35538616  0.10656172  0.42047480    -0.10800
H190        H  0.34216975  0.16038163  0.34359119     0.08900
H191        H  0.42327289  0.12222046  0.38234307     0.06400
H192        H  0.34436652  0.09243166  0.44438654     0.06300
C193        C  0.99911209  0.46195493  0.40963171     0.03300
C194        C  0.98092876  0.47691792  0.37895853    -0.12800
C195        C  0.98385582  0.50707458  0.37321093     0.00800
C196        C  0.00438531  0.52220955  0.39956293    -0.11400
C197        C  0.02225626  0.50774867  0.43048558     0.03300
C198        C  0.01996713  0.47763356  0.43475587    -0.10800
H199        H  0.96513053  0.46502124  0.35880123     0.08900
H200        H  0.00633020  0.54551443  0.39641277     0.06400
H201        H  0.03329153  0.46662729  0.45971300     0.06300
C202        C  0.65424686  0.11142896  0.39876895     0.03300
C203        C  0.63981388  0.09423052  0.36564600    -0.12800
C204        C  0.60957508  0.09660343  0.36003405     0.00800
C205        C  0.59400616  0.11619284  0.38791106    -0.11400
C206        C  0.60808547  0.13370402  0.42037299     0.03300
C207        C  0.63816905  0.13137118  0.42546308    -0.10800
H208        H  0.65203086  0.07905016  0.34457568     0.08900
H209        H  0.57070227  0.11787554  0.38440441     0.06400
H210        H  0.64903746  0.14464099  0.45108452     0.06300
C211        C  0.99858523  0.46124483  0.13776510     0.03300
C212        C  0.01924237  0.47664768  0.11182585    -0.12800
C213        C  0.02266151  0.50666992  0.11796287     0.00800
C214        C  0.00576069  0.52120307  0.15088273    -0.11400
C215        C  0.98530962  0.50630690  0.17748703     0.03300
C216        C  0.98176856  0.47628994  0.17076153    -0.10800
H217        H  0.03206582  0.46542860  0.08593797     0.08900
H218        H  0.00822314  0.54443447  0.15515437     0.06400
H219        H  0.96578912  0.46470041  0.19083546     0.06300
N220        N  0.96510174  0.14882061  0.09499960    -0.36400
N221        N  0.96494137  0.08573531  0.09007006    -0.57000
N222        N  0.02778327  0.08710748  0.09353365    -0.36400
N223        N  0.02816519  0.15037893  0.09216893    -0.57000
C224        C  0.93695518  0.14345165  0.08520898     0.27200
C225        C  0.96992460  0.17726702  0.08726764     0.27200
C226        C  0.02294031  0.05871608  0.08389259     0.27200
C227        C  0.05617640  0.09244787  0.08538256     0.27200
C228        C  0.93685077  0.09069869  0.10079468     0.35800
C229        C  0.97020833  0.05777849  0.10066307     0.35800
C230        C  0.02275937  0.17846228  0.10322202     0.35800
C231        C  0.05633053  0.14548852  0.10238866     0.35800
C232        C  0.92386346  0.16868753  0.07037413    -0.21700
C233        C  0.94462372  0.19005553  0.07192375    -0.21700
C234        C  0.04846563  0.04603381  0.06864837    -0.21700
C235        C  0.06939513  0.06716502  0.06995120    -0.21700
C236        C  0.92416604  0.06579321  0.11782108    -0.22800
C237        C  0.94532763  0.04497993  0.11798157    -0.22800
C238        C  0.04770164  0.19158401  0.11960125    -0.22800
C239        C  0.06889710  0.17073427  0.11922701    -0.22800
C240        C  0.92223373  0.11714907  0.09385367    -0.18100
C241        C  0.99565605  0.19246961  0.09828014    -0.18100
C242        C  0.07094794  0.11867024  0.09603632    -0.18100
C243        C  0.99692099  0.04344045  0.09322675    -0.18100
H244        H  0.90144264  0.17165297  0.06085448     0.14800
H245        H  0.94121346  0.21262818  0.06396831     0.14800
H246        H  0.05213944  0.02356270  0.05963448     0.14800
H247        H  0.09207238  0.06370958  0.06259451     0.14800
H248        H  0.90207106  0.06299895  0.12952143     0.13100
H249        H  0.94268431  0.02303230  0.13000273     0.13100
H250        H  0.05029465  0.21372950  0.13142947     0.13100
H251        H  0.09090415  0.17381054  0.13092152     0.13100
H252        H  0.97896811  0.13500012  0.11225486     0.26300
H253        H  0.01368128  0.10088374  0.11099892     0.26300
C254        C  0.65446352  0.12094249  0.13650838     0.03300
C255        C  0.63824819  0.13990307  0.10901398    -0.12800
C256        C  0.60788525  0.13853109  0.10856339     0.00800
C257        C  0.59365310  0.11880047  0.13700311    -0.11400
C258        C  0.60928094  0.10016291  0.16534603     0.03300
C259        C  0.63967136  0.10089151  0.16438638    -0.10800
H260        H  0.64921059  0.15546776  0.08741793     0.08900
H261        H  0.57018419  0.11796743  0.13714710     0.06400
H262        H  0.65170642  0.08618721  0.18589592     0.06300
C263        C  0.01404230  0.77561498  0.14148659     0.03300
C264        C  0.99425908  0.75960504  0.11458478    -0.12800
C265        C  0.99268719  0.72937714  0.11767990     0.00800
C266        C  0.01095348  0.71494661  0.14810792    -0.11400
C267        C  0.03062434  0.73032502  0.17579552     0.03300
C268        C  0.03235848  0.76066334  0.17195563    -0.10800
H269        H  0.98075830  0.77052788  0.08980524     0.08900
H270        H  0.00970062  0.69155212  0.15038682     0.06400
H271        H  0.04709762  0.77264372  0.19393075     0.06300
C272        C  0.34055072  0.12661969  0.12720348     0.03300
C273        C  0.35649768  0.10646222  0.10074567    -0.12800
C274        C  0.38686504  0.10563408  0.10332712     0.00800
C275        C  0.40111816  0.12439775  0.13393991    -0.11400
C276        C  0.38554009  0.14411626  0.16162157     0.03300
C277        C  0.35527066  0.14560019  0.15730358    -0.10800
H278        H  0.34532555  0.09232618  0.07666958     0.08900
H279        H  0.42452772  0.12355674  0.13629354     0.06400
H280        H  0.34304894  0.16069385  0.17854225     0.06300
O281        O  0.06499010  0.51418114  0.47538679    -0.72800
O282        O  0.11013399  0.55734306  0.07236675    -0.73700
O283        O  0.06521634  0.51331774  0.07174920    -0.62400
O284        O  0.10957391  0.55812775  0.47596469    -0.70800
O285        O  0.07540611  0.59195847  0.47736689    -0.70300
O286        O  0.03229230  0.54833806  0.07356637    -0.61600
O287        O  0.07621932  0.59140827  0.07384992    -0.74100
O288        O  0.03177495  0.54895354  0.47709852    -0.72900
Cu289      Cu  0.08872237  0.53449294  0.02382053     1.04600
Cu290      Cu  0.05281020  0.57129874  0.02556517     1.04300
C291        C  0.04083090  0.52452937  0.46193995     0.93400
C292        C  0.10060608  0.58168920  0.08731672     0.92600
C293        C  0.04120736  0.52359864  0.08670873     0.84700
C294        C  0.09965708  0.58245153  0.46243443     0.91000
O295        O  0.52312892  0.18778993  0.46435988    -0.72800
O296        O  0.56656777  0.14637010  0.06210744    -0.73700
O297        O  0.52337565  0.19013015  0.06093412    -0.62400
O298        O  0.56632551  0.14397714  0.46556600    -0.70800
O299        O  0.60125707  0.17704890  0.46488832    -0.70300
O300        O  0.55698845  0.22450176  0.05910228    -0.61600
O301        O  0.60099441  0.17995081  0.06119654    -0.74100
O302        O  0.55730084  0.22167125  0.46288263    -0.72900
Cu303      Cu  0.54371205  0.16592662  0.01328900     1.04600
Cu304      Cu  0.58038263  0.20200000  0.01188817     1.04300
C305        C  0.53279590  0.21187650  0.44954455     0.93400
C306        C  0.59094041  0.15602337  0.07618570     0.92600
C307        C  0.53275598  0.21490670  0.07404798     0.84700
C308        C  0.59101541  0.15267296  0.45133831     0.91000
O309        O  0.94803013  0.72355151  0.47734085    -0.72800
O310        O  0.90358031  0.68005774  0.07449855    -0.73700
O311        O  0.94937721  0.72319829  0.07373152    -0.62400
O312        O  0.90257494  0.68032922  0.47777947    -0.70800
O313        O  0.93624373  0.64605125  0.47615377    -0.70300
O314        O  0.98208190  0.68797594  0.07181082    -0.61600
O315        O  0.93727266  0.64579563  0.07273815    -0.74100
O316        O  0.98078819  0.68839691  0.47533220    -0.72900
Cu317      Cu  0.92467217  0.70305040  0.02595447     1.04600
Cu318      Cu  0.96016462  0.66588574  0.02395985     1.04300
C319        C  0.97186268  0.71310156  0.46199279     0.93400
C320        C  0.91318137  0.65561156  0.08800096     0.92600
C321        C  0.97359127  0.71265022  0.08671918     0.84700
C322        C  0.91198610  0.65599286  0.46253988     0.91000
O323        O  0.43785020  0.01756362  0.05619502    -0.72800
O324        O  0.39284626  0.06228306  0.46116967    -0.73700
O325        O  0.43689497  0.01695166  0.46005953    -0.62400
O326        O  0.39370851  0.06267113  0.05764983    -0.70800
O327        O  0.42841357  0.09595339  0.05704781    -0.70300
O328        O  0.47078281  0.05107484  0.45935065    -0.61600
O329        O  0.42771437  0.09538663  0.46043678    -0.74100
O330        O  0.47161370  0.05182235  0.05566746    -0.72900
Cu331      Cu  0.41405881  0.03866566  0.00878963     1.04600
Cu332      Cu  0.45075618  0.07467598  0.00806900     1.04300
C333        C  0.46237972  0.02733736  0.06959938     0.93400
C334        C  0.40293425  0.08644866  0.44699968     0.92600
C335        C  0.46131249  0.02643041  0.44574308     0.84700
C336        C  0.40389251  0.08697581  0.07164131     0.91000
O337        O  0.03767042  0.69042385  0.22530584    -0.72800
O338        O  0.07884641  0.64684375  0.32296539    -0.73700
O339        O  0.03633320  0.69081534  0.32204531    -0.62400
O340        O  0.08022945  0.64660090  0.22651342    -0.70800
O341        O  0.11532447  0.67943903  0.22687827    -0.70300
O342        O  0.07020486  0.72490872  0.32348476    -0.61600
O343        O  0.11382951  0.67979242  0.32430288    -0.74100
O344        O  0.07159022  0.72446941  0.22578380    -0.72900
Cu345      Cu  0.05715716  0.66761072  0.27416284     1.04600
Cu346      Cu  0.09402007  0.70341003  0.27517208     1.04300
C347        C  0.04762485  0.71439779  0.21042750     0.93400
C348        C  0.10304563  0.65594039  0.33855820     0.92600
C349        C  0.04589361  0.71494696  0.33758036     0.84700
C350        C  0.10476852  0.65550232  0.21196744     0.91000
O351        O  0.42512704  0.15186554  0.21184827    -0.72800
O352        O  0.46781267  0.19404281  0.31020971    -0.73700
O353        O  0.42439132  0.15118406  0.30867664    -0.62400
O354        O  0.46832700  0.19499405  0.21351475    -0.70800
O355        O  0.43520525  0.22973906  0.21401956    -0.70300
O356        O  0.39014664  0.18482939  0.31026613    -0.61600
O357        O  0.43483153  0.22892288  0.31213202    -0.74100
O358        O  0.39075206  0.18539558  0.21227425    -0.72900
Cu359      Cu  0.44748151  0.17196020  0.26103184     1.04600
Cu360      Cu  0.41145776  0.20851935  0.26219856     1.04300
C361        C  0.40113787  0.16149284  0.19670213     0.93400
C362        C  0.45857298  0.21805999  0.32664851     0.92600
C363        C  0.40029048  0.16069581  0.32433864     0.84700
C364        C  0.45910784  0.21927737  0.19883290     0.91000
O365        O  0.94261899  0.51321820  0.32383555    -0.72800
O366        O  0.90014849  0.55774146  0.22541420    -0.73700
O367        O  0.94371647  0.51276588  0.22634500    -0.62400
O368        O  0.89892664  0.55839255  0.32266405    -0.70800
O369        O  0.93402439  0.59124499  0.32289060    -0.70300
O370        O  0.97776330  0.54668445  0.22734357    -0.61600
O371        O  0.93515391  0.59067426  0.22622779    -0.74100
O372        O  0.97661441  0.54717373  0.32398440    -0.72900
Cu373      Cu  0.92009740  0.53428114  0.27455017     1.04600
Cu374      Cu  0.95702100  0.57002062  0.27516679     1.04300
C375        C  0.96670657  0.52316366  0.33887313     0.93400
C376        C  0.91086434  0.58156245  0.21094308     0.92600
C377        C  0.96802485  0.52257234  0.21201960     0.84700
C378        C  0.90941938  0.58242176  0.33729102     0.91000
O379        O  0.56913624  0.09091793  0.21362544    -0.72800
O380        O  0.52611062  0.04637722  0.30785814    -0.73700
O381        O  0.56959419  0.08935296  0.31007323    -0.62400
O382        O  0.52583748  0.04797418  0.21128799    -0.70800
O383        O  0.55925350  0.01348827  0.20901696    -0.70300
O384        O  0.60393501  0.05579439  0.30870414    -0.61600
O385        O  0.55927686  0.01166259  0.30673998    -0.74100
O386        O  0.60373378  0.05758561  0.21135028    -0.72900
Cu387      Cu  0.54658358  0.06972834  0.26079817     1.04600
Cu388      Cu  0.58280250  0.03332765  0.25882820     1.04300
C389        C  0.59336875  0.08179705  0.19807506     0.93400
C390        C  0.53536627  0.02202657  0.32207969     0.92600
C391        C  0.59374560  0.07964413  0.32464678     0.84700
C392        C  0.53532282  0.02406227  0.19478287     0.91000
C393        C  0.30854297  0.12792826  0.12306288    -0.03000
C394        C  0.29464825  0.15434769  0.11457882    -0.05600
C395        C  0.26454342  0.15546370  0.10944345    -0.20700
C396        C  0.24753883  0.13032278  0.11340267     0.25000
C397        C  0.26155680  0.10381586  0.12205562    -0.18200
C398        C  0.29172865  0.10268409  0.12669479    -0.08200
C399        C  0.21557575  0.13274856  0.10660736    -0.18500
C400        C  0.19613888  0.11254075  0.11975775    -0.23300
C401        C  0.16415615  0.11516197  0.11318744     0.27100
C402        C  0.14576026  0.09670877  0.13802819    -0.20100
C403        C  0.11567357  0.09807974  0.13279407    -0.09700
C404        C  0.10316573  0.11765555  0.10198070    -0.10300
C405        C  0.12148993  0.13603432  0.07695350    -0.03200
C406        C  0.15159328  0.13482454  0.08232716    -0.18300
H407        H  0.30717053  0.17406136  0.11109778     0.10800
H408        H  0.25448043  0.17612190  0.10234224     0.10900
H409        H  0.24957449  0.08376348  0.12429360     0.10500
H410        H  0.30198572  0.08204493  0.13322654     0.11600
H411        H  0.20790395  0.15271401  0.09164146     0.11700
H412        H  0.20363326  0.09358293  0.13789455     0.13600
H413        H  0.15469524  0.08122686  0.16184461     0.10100
H414        H  0.10208207  0.08375624  0.15278437     0.12200
H415        H  0.11248543  0.15110039  0.05268961     0.08900
H416        H  0.16474214  0.14885650  0.06128871     0.11600
C417        C  0.99775537  0.01108064  0.09608160    -0.03000
C418        C  0.97847383  0.99395287  0.07029490    -0.05600
C419        C  0.97887606  0.96376726  0.07355996    -0.20700
C420        C  0.99875007  0.94984172  0.10232891     0.25000
C421        C  0.01797100  0.96701228  0.12850101    -0.18200
C422        C  0.01738242  0.99726393  0.12543655    -0.08200
C423        C  0.99763607  0.91761212  0.10533722    -0.18500
C424        C  0.01871992  0.90109944  0.12359830    -0.23300
C425        C  0.01686645  0.86893248  0.12768394     0.27100
C426        C  0.04233473  0.85312532  0.13563901    -0.20100
C427        C  0.04153780  0.82295765  0.14040449    -0.09700
C428        C  0.01513966  0.80783076  0.13764169    -0.10300
C429        C  0.98959212  0.82374828  0.13052842    -0.03200
C430        C  0.99039120  0.85383111  0.12566553    -0.18300
H431        H  0.96306977  0.00399147  0.04754313     0.10800
H432        H  0.96364304  0.95122562  0.05326449     0.10900
H433        H  0.03304324  0.95742031  0.15223020     0.10500
H434        H  0.03210470  0.00997313  0.14640149     0.11600
H435        H  0.97876778  0.90717792  0.09050268     0.11700
H436        H  0.03866720  0.91122583  0.13498303     0.13600
H437        H  0.06301382  0.86414555  0.13782224     0.10100
H438        H  0.06167793  0.81145920  0.14547425     0.12200
H439        H  0.96875332  0.81300224  0.12948188     0.08900
H440        H  0.97005655  0.86503198  0.12141668     0.11600
C441        C  0.68671217  0.12211977  0.13608971    -0.03000
C442        C  0.70251835  0.11821679  0.17681940    -0.05600
C443        C  0.73279560  0.11904123  0.17633997    -0.20700
C444        C  0.74800947  0.12369146  0.13521384     0.25000
C445        C  0.73225779  0.12840330  0.09467266    -0.18200
C446        C  0.70199319  0.12736075  0.09502854    -0.08200
C447        C  0.78019981  0.12421600  0.13607206    -0.18500
C448        C  0.79668314  0.11764038  0.09907957    -0.23300
C449        C  0.82886583  0.11748600  0.09969749     0.27100
C450        C  0.84362293  0.10053742  0.06687268    -0.20100
C451        C  0.87384704  0.10024375  0.06544122    -0.09700
C452        C  0.88999905  0.11731230  0.09612428    -0.10300
C453        C  0.87538087  0.13431069  0.12908281    -0.03200
C454        C  0.84507478  0.13444593  0.13089405    -0.18300
H455        H  0.69149381  0.11483718  0.20925512     0.10800
H456        H  0.74439033  0.11583821  0.20820280     0.10900
H457        H  0.74319933  0.13334342  0.06276780     0.10500
H458        H  0.69060123  0.13041520  0.06297416     0.11600
H459        H  0.79049220  0.12852200  0.16893253     0.11700
H460        H  0.78630274  0.11057081  0.06745315     0.13600
H461        H  0.83172374  0.08743458  0.04224686     0.10100
H462        H  0.88469655  0.08692403  0.04005256     0.12200
H463        H  0.88747374  0.14754810  0.15326312     0.08900
H464        H  0.83452139  0.14831944  0.15601861     0.11600
C465        C  0.99422475  0.42964188  0.12953793    -0.03000
C466        C  0.99278117  0.41843284  0.08448313    -0.05600
C467        C  0.99013656  0.38859427  0.07655984    -0.20700
C468        C  0.98899738  0.36910762  0.11336209     0.25000
C469        C  0.98971384  0.38044397  0.15860742    -0.18200
C470        C  0.99212586  0.41036786  0.16650050    -0.08200
C471        C  0.98923301  0.33733490  0.10264226    -0.18500
C472        C  0.98467678  0.31629091  0.13377699    -0.23300
C473        C  0.98751967  0.28472520  0.12300488     0.27100
C474        C  0.97306692  0.26470577  0.15102688    -0.20100
C475        C  0.97583781  0.23488597  0.14297333    -0.09700
C476        C  0.99347549  0.22434853  0.10707738    -0.10300
C477        C  0.00851115  0.24422413  0.07967931    -0.03200
C478        C  0.00550871  0.27410673  0.08735502    -0.18300
H479        H  0.99384968  0.43277484  0.05526928     0.10800
H480        H  0.98953879  0.38065758  0.04137943     0.10900
H481        H  0.98940538  0.36646201  0.18815580     0.10500
H482        H  0.99335967  0.41837219  0.20158607     0.11600
H483        H  0.99348475  0.33110548  0.06714817     0.11700
H484        H  0.97804110  0.32204085  0.16847215     0.13600
H485        H  0.95944173  0.27217629  0.17914267     0.10100
H486        H  0.96424359  0.21993727  0.16485792     0.12200
H487        H  0.02243402  0.23658365  0.05214913     0.08900
H488        H  0.01777823  0.28869812  0.06588845     0.11600
C489        C  0.89071016  0.11581817  0.44129434    -0.03000
C490        C  0.88106363  0.09735423  0.40581399    -0.05600
C491        C  0.85156938  0.09489288  0.39572224    -0.20700
C492        C  0.83083808  0.11072552  0.42086468     0.25000
C493        C  0.84045085  0.12958831  0.45611428    -0.18200
C494        C  0.87008624  0.13207308  0.46617201    -0.08200
C495        C  0.79968068  0.10770062  0.40793555    -0.18500
C496        C  0.77753301  0.11260871  0.43735652    -0.23300
C497        C  0.74626023  0.10941272  0.42507498     0.27100
C498        C  0.72604562  0.10642051  0.46088208    -0.20100
C499        C  0.69632357  0.10608692  0.45199607    -0.09700
C500        C  0.68592823  0.10857385  0.40687881    -0.10300
C501        C  0.70602447  0.11027579  0.37056028    -0.03200
C502        C  0.73592058  0.11090773  0.37953003    -0.18300
H503        H  0.89649415  0.08484122  0.38571581     0.10800
H504        H  0.84490043  0.08042498  0.36816713     0.10900
H505        H  0.82527628  0.14277575  0.47551063     0.10500
H506        H  0.87694099  0.14664332  0.49343891     0.11600
H507        H  0.79505344  0.09962295  0.37356840     0.11700
H508        H  0.78239987  0.11823614  0.47284610     0.13600
H509        H  0.73328400  0.10470746  0.49607998     0.10100
H510        H  0.68134258  0.10430850  0.48059552     0.12200
H511        H  0.69857616  0.11239664  0.33547836     0.08900
H512        H  0.75065010  0.11367125  0.35090867     0.11600
C513        C  0.99745674  0.22570208  0.44841990     0.02600
C514        C  0.01570474  0.23733322  0.41455345    -0.05600
C515        C  0.01787419  0.26731465  0.40893585    -0.20700
C516        C  0.00171335  0.28647320  0.43674257     0.25000
C517        C  0.98326381  0.27481310  0.47058097    -0.18200
C518        C  0.98107035  0.24472959  0.47608526    -0.08200
C519        C  0.00557152  0.31826488  0.42998344    -0.18500
C520        C  0.98645293  0.33865155  0.44402824    -0.23300
C521        C  0.99033614  0.37015038  0.43469122     0.27100
C522        C  0.01788079  0.38284170  0.42955946    -0.20100
C523        C  0.02064497  0.41248104  0.42076977    -0.09700
C524        C  0.99600931  0.43020019  0.41695325    -0.10300
C525        C  0.96853262  0.41758358  0.42251136    -0.03200
C526        C  0.96577070  0.38796164  0.43167845    -0.18300
H527        H  0.02843618  0.22311961  0.39257723     0.10800
H528        H  0.03228747  0.27558618  0.38266696     0.10900
H529        H  0.97100016  0.28871819  0.49358608     0.10500
H530        H  0.96697839  0.23628131  0.50254064     0.11600
H531        H  0.02436431  0.32492442  0.41018058     0.11700
H532        H  0.96633405  0.33209367  0.46026607     0.13600
H533        H  0.03738475  0.37010448  0.43307645     0.10100
H534        H  0.04213358  0.42157457  0.41687353     0.12200
H535        H  0.94918524  0.43075767  0.42071962     0.08900
H536        H  0.94431961  0.37886755  0.43609759     0.11600
C537        C  0.10423472  0.12115826  0.45336606    -0.03000
C538        C  0.12107158  0.10241597  0.47993740    -0.05600
C539        C  0.15130082  0.10316610  0.47769950    -0.20700
C540        C  0.16558242  0.12253302  0.44844790     0.25000
C541        C  0.14878307  0.14153868  0.42189513    -0.18200
C542        C  0.11845479  0.14068861  0.42415003    -0.08200
C543        C  0.19788752  0.12241314  0.44731032    -0.18500
C544        C  0.21369127  0.13183299  0.41129028    -0.23300
C545        C  0.24596954  0.13040536  0.40863508     0.27100
C546        C  0.25931799  0.13254522  0.36529706    -0.20100
C547        C  0.28948484  0.13140947  0.36077903    -0.09700
C548        C  0.30719019  0.12820205  0.39960019    -0.10300
C549        C  0.29390342  0.12638594  0.44314422    -0.03200
C550        C  0.26368525  0.12759219  0.44770022    -0.18300
H551        H  0.11077571  0.08715741  0.50251524     0.10800
H552        H  0.16357974  0.08842699  0.49882957     0.10900
H553        H  0.15886818  0.15734041  0.39978893     0.10500
H554        H  0.10603451  0.15531878  0.40306235     0.11600
H555        H  0.20876560  0.11246067  0.47611441     0.11700
H556        H  0.20254198  0.13949505  0.38098046     0.13600
H557        H  0.24631224  0.13484417  0.33462113     0.10100
H558        H  0.29894080  0.13257942  0.32671176     0.12200
H559        H  0.30692467  0.12448937  0.47386520     0.08900
H560        H  0.25449693  0.12680233  0.48192483     0.11600
C561        C  0.99767535  0.01269491  0.44279174    -0.03000
C562        C  0.98252252  0.00077596  0.40535564    -0.05600
C563        C  0.98182746  0.97074830  0.39811316    -0.20700
C564        C  0.99642511  0.95201200  0.42791703     0.25000
C565        C  0.01159822  0.96401448  0.46546404    -0.18200
C566        C  0.01236586  0.99406170  0.47250971    -0.08200
C567        C  0.99448490  0.92015028  0.41971480    -0.18500
C568        C  0.01495210  0.90124959  0.43320573    -0.23300
C569        C  0.01312831  0.86946953  0.42424398     0.27100
C570        C  0.03880762  0.85338560  0.41976594    -0.20100
C571        C  0.03795271  0.82333608  0.41263635    -0.09700
C572        C  0.01133530  0.80857715  0.41066539    -0.10300
C573        C  0.98560452  0.82470598  0.41523413    -0.03200
C574        C  0.98646009  0.85477823  0.42192656    -0.18300
H575        H  0.97124115  0.01477744  0.38173794     0.10800
H576        H  0.96993928  0.96211646  0.36899148     0.10900
H577        H  0.02239994  0.95030145  0.48998619     0.10500
H578        H  0.02413587  0.00279744  0.50150816     0.11600
H579        H  0.97626075  0.91224352  0.39969073     0.11700
H580        H  0.03457591  0.90938870  0.44923372     0.13600
H581        H  0.05963573  0.86412910  0.42182380     0.10100
H582        H  0.05815636  0.81154072  0.40991287     0.12200
H583        H  0.96473485  0.81402779  0.41371756     0.08900
H584        H  0.96623841  0.86632194  0.42636416     0.11600
C585        C  0.61135007  0.61634180  0.42882083    -0.03000
C586        C  0.62693937  0.59889559  0.45926855    -0.05600
C587        C  0.65713707  0.59721879  0.45655060    -0.20700
C588        C  0.67252885  0.61320695  0.42368046     0.25000
C589        C  0.65693401  0.63086175  0.39326289    -0.18200
C590        C  0.62665459  0.63235577  0.39582151    -0.08200
C591        C  0.70458848  0.60985974  0.42093997    -0.18500
C592        C  0.72246220  0.63024715  0.40393640    -0.23300
C593        C  0.75454870  0.62710294  0.40288104     0.27100
C594        C  0.77175612  0.65209008  0.40583227    -0.20100
C595        C  0.80197206  0.65013223  0.40508413    -0.09700
C596        C  0.81582334  0.62308672  0.40082041    -0.10300
C597        C  0.79855824  0.59804836  0.39681778    -0.03200
C598        C  0.76825528  0.60001194  0.39786367    -0.18300
H599        H  0.61558092  0.58614659  0.48462906     0.10800
H600        H  0.66852569  0.58331429  0.48019284     0.10900
H601        H  0.66790302  0.64289112  0.36662944     0.10500
H602        H  0.61508628  0.64562137  0.37149350     0.11600
H603        H  0.71385997  0.59049418  0.43580970     0.11700
H604        H  0.71355938  0.65084221  0.39318765     0.13600
H605        H  0.76176783  0.67323841  0.40917788     0.10100
H606        H  0.81450831  0.66992308  0.40730740     0.12200
H607        H  0.80846209  0.57687381  0.39355333     0.08900
H608        H  0.75565380  0.58035341  0.39420154     0.11600
C609        C  0.49148200  0.30800313  0.41302991    -0.03000
C610        C  0.49460731  0.31836294  0.45846687    -0.05600
C611        C  0.49649619  0.34804458  0.46776954    -0.20700
C612        C  0.49487519  0.36816183  0.43208124     0.25000
C613        C  0.49109145  0.35785966  0.38665388    -0.18200
C614        C  0.48926261  0.32809838  0.37732618    -0.08200
C615        C  0.49860929  0.39947618  0.44335375    -0.18500
C616        C  0.48875130  0.42078656  0.41631124    -0.23300
C617        C  0.49268452  0.45226815  0.42597236     0.27100
C618        C  0.47550096  0.47186579  0.40161476    -0.20100
C619        C  0.47899949  0.50167946  0.40762904    -0.09700
C620        C  0.49981907  0.51269875  0.43818926    -0.10300
C621        C  0.51719670  0.49325428  0.46251656    -0.03200
C622        C  0.51374643  0.46328726  0.45649811    -0.18300
H623        H  0.49597124  0.30345194  0.48690086     0.10800
H624        H  0.49943879  0.35531060  0.50298788     0.10900
H625        H  0.49061189  0.37252976  0.35792688     0.10500
H626        H  0.48733198  0.32078112  0.34196519     0.11600
H627        H  0.50891906  0.40489538  0.47577517     0.11700
H628        H  0.47624725  0.41508279  0.38602892     0.13600
H629        H  0.45934213  0.46407702  0.37755783     0.10100
H630        H  0.46554354  0.51626480  0.38808799     0.12200
H631        H  0.53371944  0.50134552  0.48556595     0.08900
H632        H  0.52806652  0.44904905  0.47494989     0.11600
C633        C  0.19447167  0.62621590  0.41945819    -0.03000
C634        C  0.20513328  0.62682814  0.46471393    -0.05600
C635        C  0.23486000  0.62892704  0.47303193    -0.20700
C636        C  0.25463275  0.63004963  0.43635240     0.25000
C637        C  0.24393549  0.63026239  0.39102102    -0.18200
C638        C  0.21415198  0.62835322  0.38270973    -0.08200
C639        C  0.28616184  0.63111366  0.44659245    -0.18500
C640        C  0.30627760  0.62018194  0.41759039    -0.23300
C641        C  0.33794045  0.61979966  0.42692357     0.27100
C642        C  0.35536854  0.60102713  0.40048454    -0.20100
C643        C  0.38537869  0.60069688  0.40602447    -0.09700
C644        C  0.39867501  0.61933289  0.43790608    -0.10300
C645        C  0.38144017  0.63803968  0.46472100    -0.03200
C646        C  0.35129803  0.63826818  0.45943913    -0.18300
H647        H  0.19042492  0.62576831  0.49376375     0.10800
H648        H  0.24246897  0.62912647  0.50824685     0.10900
H649        H  0.25844625  0.63208934  0.36189079     0.10500
H650        H  0.20653761  0.62802333  0.34752428     0.11600
H651        H  0.29257947  0.63926992  0.48016541     0.11700
H652        H  0.29918308  0.60967980  0.38600581     0.13600
H653        H  0.34573651  0.58670677  0.37505149     0.10100
H654        H  0.39835832  0.58632783  0.38468163     0.12200
H655        H  0.39140692  0.65273958  0.48920508     0.08900
H656        H  0.33881583  0.65348194  0.47988896     0.11600
C657        C  0.50292609  0.92989289  0.39948083    -0.03000
C658        C  0.50216777  0.91779892  0.44367672    -0.05600
C659        C  0.50267403  0.88771396  0.44934122    -0.20700
C660        C  0.50399127  0.86890688  0.41106502     0.25000
C661        C  0.50492383  0.88102406  0.36678382    -0.18200
C662        C  0.50456749  0.91114902  0.36114929    -0.08200
C663        C  0.50274560  0.83699165  0.41885109    -0.18500
C664        C  0.51087833  0.81676917  0.38749210    -0.23300
C665        C  0.50886583  0.78496869  0.39561894     0.27100
C666        C  0.52722891  0.76613601  0.37091003    -0.20100
C667        C  0.52607208  0.73616494  0.37778063    -0.09700
C668        C  0.50645312  0.72430784  0.40951346    -0.10300
C669        C  0.48747600  0.74306926  0.43323638    -0.03200
C670        C  0.48852240  0.77300014  0.42621779    -0.18300
H671        H  0.50120538  0.93164056  0.47395496     0.10800
H672        H  0.50186292  0.87909384  0.48384848     0.10900
H673        H  0.50508595  0.86745193  0.33627005     0.10500
H674        H  0.50471713  0.91979317  0.32666579     0.11600
H675        H  0.49554410  0.83000541  0.45253266     0.11700
H676        H  0.52059425  0.82352659  0.35531961     0.13600
H677        H  0.54274889  0.77467702  0.34651727     0.10100
H678        H  0.54058653  0.72218465  0.35841216     0.12200
H679        H  0.47207994  0.73454458  0.45784668     0.08900
H680        H  0.47332280  0.78660536  0.44479985     0.11600
C681        C  0.40143052  0.62576841  0.09611834    -0.03000
C682        C  0.39111332  0.64420648  0.13125639    -0.05600
C683        C  0.36139144  0.64643307  0.14030792    -0.20700
C684        C  0.34130078  0.63001024  0.11490530     0.25000
C685        C  0.35171409  0.61149573  0.07968995    -0.18200
C686        C  0.38145692  0.60929046  0.07073752    -0.08200
C687        C  0.30977893  0.63339678  0.12531209    -0.18500
C688        C  0.28982310  0.61307965  0.11471640    -0.23300
C689        C  0.25826992  0.61561023  0.12518691     0.27100
C690        C  0.24164702  0.59017308  0.12514873    -0.20100
C691        C  0.21176823  0.59116790  0.13244664    -0.09700
C692        C  0.19745080  0.61774698  0.13934545    -0.10300
C693        C  0.21408375  0.64331397  0.14018763    -0.03200
C694        C  0.24418013  0.64230112  0.13308154    -0.18300
H695        H  0.40613540  0.65700965  0.15152875     0.10800
H696        H  0.35407024  0.66095999  0.16743339     0.10900
H697        H  0.33705897  0.59913636  0.05820995     0.10500
H698        H  0.38887348  0.59503882  0.04349614     0.11600
H699        H  0.30319143  0.65266116  0.14429409     0.11700
H700        H  0.29694500  0.59278600  0.09932369     0.13600
H701        H  0.25182893  0.56932008  0.11924787     0.10100
H702        H  0.19981783  0.57097891  0.13246466     0.12200
H703        H  0.20372415  0.66417947  0.14480535     0.08900
H704        H  0.25604640  0.66249338  0.13237689     0.11600
C705        C  0.50680565  0.93171426  0.11311650    -0.03000
C706        C  0.53345667  0.91788788  0.12166864    -0.05600
C707        C  0.53594770  0.88773186  0.11881219    -0.20700
C708        C  0.51227594  0.87068945  0.10551433     0.25000
C709        C  0.48595090  0.88425914  0.09509462    -0.18200
C710        C  0.48313833  0.91438945  0.09934496    -0.08200
C711        C  0.51484197  0.83871619  0.10585299    -0.18500
C712        C  0.50504362  0.82188367  0.07130077    -0.23300
C713        C  0.50715009  0.78988228  0.07261416     0.27100
C714        C  0.51699549  0.77448530  0.03378901    -0.20100
C715        C  0.51798644  0.74416136  0.03395197    -0.09700
C716        C  0.50863828  0.72878714  0.07257839    -0.10300
C717        C  0.49885994  0.74419550  0.11151727    -0.03200
C718        C  0.49828398  0.77450527  0.11167512    -0.18300
H719        H  0.55251805  0.93026771  0.13082981     0.10800
H720        H  0.55648112  0.87766407  0.12681628     0.10900
H721        H  0.46723218  0.87144365  0.08546669     0.10500
H722        H  0.46211965  0.92388787  0.09318766     0.11600
H723        H  0.52617374  0.82884258  0.13438805     0.11700
H724        H  0.49639399  0.83183976  0.04057958     0.13600
H725        H  0.52418486  0.78598860  0.00354940     0.10100
H726        H  0.52592439  0.73260674  0.00401364     0.12200
H727        H  0.49148922  0.73268160  0.14165739     0.08900
H728        H  0.49027072  0.78592450  0.14185291     0.11600
C729        C  0.81766493  0.61487259  0.13943489    -0.03000
C730        C  0.80391586  0.58781432  0.13514205    -0.05600
C731        C  0.77380683  0.58595952  0.13035258    -0.20700
C732        C  0.75656315  0.61102458  0.13048786     0.25000
C733        C  0.77031679  0.63818369  0.13462551    -0.18200
C734        C  0.80052346  0.64004643  0.13891911    -0.08200
C735        C  0.72462012  0.60785634  0.12408544    -0.18500
C736        C  0.70494146  0.62782929  0.13782369    -0.23300
C737        C  0.67298361  0.62480375  0.13076663     0.27100
C738        C  0.65406967  0.64234020  0.15692441    -0.20100
C739        C  0.62405296  0.64117453  0.14999351    -0.09700
C740        C  0.61224066  0.62258152  0.11640626    -0.10300
C741        C  0.63099562  0.60475501  0.09069325    -0.03200
C742        C  0.66099715  0.60593991  0.09746324    -0.18300
H743        H  0.81653778  0.56804954  0.13467240     0.10800
H744        H  0.76391619  0.56478113  0.12661989     0.10900
H745        H  0.75797348  0.65806363  0.13359653     0.10500
H746        H  0.81049790  0.66120823  0.14212434     0.11600
H747        H  0.71717464  0.58758139  0.10912171     0.11700
H748        H  0.71232584  0.64693912  0.15641501     0.13600
H749        H  0.66257097  0.65716201  0.18266042     0.10100
H750        H  0.61002464  0.65508567  0.17038068     0.12200
H751        H  0.62236940  0.59022370  0.06475303     0.08900
H752        H  0.67459150  0.59257300  0.07561775     0.11600
C753        C  0.50677755  0.51439899  0.08320108    -0.03000
C754        C  0.53291503  0.49846458  0.07978836    -0.05600
C755        C  0.53302510  0.46815987  0.07814657    -0.20700
C756        C  0.50706803  0.45250216  0.07736091     0.25000
C757        C  0.48108291  0.46797898  0.07326466    -0.18200
C758        C  0.48107332  0.49836933  0.07477749    -0.08200
C759        C  0.50828497  0.42025070  0.07958621    -0.18500
C760        C  0.48651074  0.40366769  0.09598008    -0.23300
C761        C  0.48892647  0.37177176  0.10363757     0.27100
C762        C  0.46349380  0.35526305  0.10833049    -0.20100
C763        C  0.46480387  0.32541695  0.11668634    -0.09700
C764        C  0.49164917  0.31133532  0.12060871    -0.10300
C765        C  0.51708462  0.32791632  0.11679065    -0.03200
C766        C  0.51579214  0.35772803  0.10867132    -0.18300
H767        H  0.55368018  0.50900975  0.07713634     0.10800
H768        H  0.55360471  0.45690129  0.07780048     0.10900
H769        H  0.46074958  0.45676352  0.06814373     0.10500
H770        H  0.46065634  0.50885021  0.06848828     0.11600
H771        H  0.52865266  0.41018418  0.06992466     0.11700
H772        H  0.46610927  0.41382869  0.10534209     0.13600
H773        H  0.44249006  0.36547076  0.10516991     0.10100
H774        H  0.44481379  0.31324012  0.11916945     0.12200
H775        H  0.53809086  0.31782019  0.12058736     0.08900
H776        H  0.53594312  0.36960931  0.10727774     0.11600
C777        C  0.49332666  0.27936335  0.62714135     0.03300
C778        C  0.51337545  0.26289491  0.60119053    -0.12800
C779        C  0.51462597  0.23266428  0.60542370     0.00800
C780        C  0.49643146  0.21896064  0.63706755    -0.11400
C781        C  0.47669023  0.23483795  0.66411507     0.03300
C782        C  0.47482570  0.26506140  0.65840882    -0.10800
H783        H  0.52699930  0.27344864  0.57595856     0.08900
H784        H  0.49753269  0.19561472  0.64033995     0.06400
H785        H  0.45967301  0.27750602  0.67915049     0.06300
N786        N  0.53856985  0.65372463  0.58979310    -0.36400
N787        N  0.47651986  0.65384938  0.57612119    -0.57000
N788        N  0.47519808  0.59038027  0.58091879    -0.36400
N789        N  0.53853151  0.59032546  0.59305310    -0.57000
C790        C  0.53509454  0.68172872  0.57735289     0.27200
C791        C  0.56738422  0.64851356  0.59161905     0.27200
C792        C  0.44769931  0.59735812  0.59380357     0.27200
C793        C  0.48008019  0.56279747  0.59475792     0.27200
C794        C  0.48118969  0.68241944  0.56949753     0.35800
C795        C  0.44764454  0.64965184  0.57302454     0.35800
C796        C  0.56478529  0.59628436  0.61177767     0.35800
C797        C  0.53258001  0.56230745  0.60299197     0.35800
C798        C  0.56208893  0.69442142  0.57153611    -0.21700
C799        C  0.58239892  0.67342659  0.57998579    -0.21700
C800        C  0.43534665  0.57421161  0.61663535    -0.21700
C801        C  0.45588619  0.55279989  0.61813457    -0.21700
C802        C  0.45524228  0.69622479  0.56024762    -0.22800
C803        C  0.43401727  0.67547855  0.56239966    -0.22800
C804        C  0.57497641  0.57244624  0.63509648    -0.22800
C805        C  0.55432279  0.55128565  0.63060970    -0.22800
C806        C  0.50836877  0.69651186  0.57264602    -0.18100
C807        C  0.58041329  0.62250062  0.60663095    -0.18100
C808        C  0.50667244  0.54737022  0.59075034    -0.18100
C809        C  0.43317044  0.62395887  0.58590283    -0.18100
H810        H  0.56686475  0.71652342  0.56214812     0.14800
H811        H  0.60562337  0.67639475  0.57831420     0.14800
H812        H  0.41408306  0.57321602  0.63232950     0.14800
H813        H  0.45366307  0.53270727  0.63666199     0.14800
H814        H  0.45186754  0.71896892  0.55336866     0.13100
H815        H  0.41105288  0.67925644  0.55830779     0.13100
H816        H  0.59485481  0.57077079  0.65449328     0.13100
H817        H  0.55479440  0.53058798  0.64770324     0.13100
H818        H  0.52251416  0.63976694  0.60123491     0.26300
H819        H  0.48922461  0.60280523  0.56102305     0.26300
C820        C  0.84978781  0.61672475  0.64377170     0.03300
C821        C  0.86569413  0.63686811  0.61771061    -0.12800
C822        C  0.89609937  0.63768253  0.62001934     0.00800
C823        C  0.91049402  0.61910922  0.65008954    -0.11400
C824        C  0.89508900  0.59935844  0.67717490     0.03300
C825        C  0.86476869  0.59788721  0.67323301    -0.10800
H826        H  0.85453686  0.65080775  0.59382847     0.08900
H827        H  0.93392190  0.61991609  0.65213176     0.06400
H828        H  0.85273017  0.58274377  0.69417297     0.06300
C829        C  0.50361944  0.96380573  0.61988910     0.03300
C830        C  0.48368938  0.97991271  0.59371682    -0.12800
C831        C  0.48101881  0.01004634  0.60000821     0.00800
C832        C  0.49834745  0.02418613  0.63264049    -0.11400
C833        C  0.51809574  0.00869393  0.65935073     0.03300
C834        C  0.52056118  0.97861687  0.65294416    -0.10800
H835        H  0.47113213  0.96938305  0.56698253     0.08900
H836        H  0.49653236  0.04746602  0.63702143     0.06400
H837        H  0.53514876  0.96674328  0.67484657     0.06300
C838        C  0.16520733  0.61849043  0.64334030     0.03300
C839        C  0.14844108  0.59953947  0.61595865    -0.12800
C840        C  0.11815817  0.59953269  0.61899371     0.00800
C841        C  0.10445137  0.61838750  0.64996152    -0.11400
C842        C  0.12049211  0.63743438  0.67779532     0.03300
C843        C  0.15093830  0.63772005  0.67401111    -0.10800
H844        H  0.15888916  0.58551106  0.59083329     0.08900
H845        H  0.08100696  0.61828558  0.65222556     0.06400
H846        H  0.16345132  0.65204761  0.69598536     0.06300
C847        C  0.50117119  0.96188751  0.89342370     0.03300
C848        C  0.51944440  0.97616093  0.86183561    -0.12800
C849        C  0.51772714  0.00638034  0.85647228     0.00800
C850        C  0.49797660  0.02226075  0.88345109    -0.11400
C851        C  0.47966289  0.00858135  0.91484633     0.03300
C852        C  0.48112153  0.97835231  0.91944978    -0.10800
H853        H  0.53484300  0.96379799  0.84143286     0.08900
H854        H  0.49689368  0.04561236  0.88023512     0.06400
H855        H  0.46707515  0.96772770  0.94400795     0.06300
N856        N  0.47349524  0.58871306  0.94324250    -0.36400
N857        N  0.53601284  0.58633764  0.94037181    -0.57000
N858        N  0.53645970  0.64890008  0.92432136    -0.36400
N859        N  0.47371430  0.65120907  0.93328444    -0.57000
C860        C  0.47832755  0.56100627  0.95572085     0.27200
C861        C  0.44568372  0.59499210  0.95416494     0.27200
C862        C  0.56454250  0.64388339  0.93507357     0.27200
C863        C  0.53179306  0.67777563  0.92903562     0.27200
C864        C  0.53007973  0.55789175  0.93361718     0.35800
C865        C  0.56387341  0.59025205  0.92741480     0.35800
C866        C  0.44526932  0.64567394  0.92655907     0.35800
C867        C  0.47884166  0.67766297  0.91542544     0.35800
C868        C  0.45351968  0.54971891  0.97570360    -0.21700
C869        C  0.43286700  0.57113404  0.97452761    -0.21700
C870        C  0.57776954  0.66982026  0.94717555    -0.21700
C871        C  0.55718072  0.69119242  0.94315295    -0.21700
C872        C  0.55434279  0.54367117  0.91660813    -0.22800
C873        C  0.57579493  0.56413925  0.91293753    -0.22800
C874        C  0.43224244  0.66875888  0.90469504    -0.22800
C875        C  0.45353815  0.68896238  0.89742848    -0.22800
C876        C  0.50316698  0.54468146  0.94372322    -0.18100
C877        C  0.43080667  0.62028687  0.94079261    -0.18100
C878        C  0.50571747  0.69234005  0.91784341    -0.18100
C879        C  0.57898482  0.61688317  0.93049056    -0.18100
H880        H  0.45024580  0.52788182  0.98787457     0.14800
H881        H  0.41054851  0.56878685  0.98515033     0.14800
H882        H  0.60008620  0.67311560  0.95719485     0.14800
H883        H  0.56071181  0.71405818  0.94939657     0.14800
H884        H  0.55643128  0.52100425  0.90740767     0.13100
H885        H  0.59756172  0.56027972  0.90038973     0.13100
H886        H  0.40982136  0.67072428  0.89449345     0.13100
H887        H  0.45067729  0.70955476  0.88060875     0.13100
H888        H  0.48674333  0.60079277  0.92190156     0.26300
H889        H  0.52236077  0.63410795  0.90923901     0.26300
C890        C  0.16292780  0.62297509  0.91097292     0.03300
C891        C  0.14683540  0.60273683  0.93630967    -0.12800
C892        C  0.11676139  0.60066632  0.93115058     0.00800
C893        C  0.10275509  0.61837790  0.89940087    -0.11400
C894        C  0.11844910  0.63825925  0.87286300     0.03300
C895        C  0.14859253  0.64055023  0.87891709    -0.10800
H896        H  0.15760423  0.58924447  0.96127706     0.08900
H897        H  0.07944079  0.61687204  0.89579662     0.06400
H898        H  0.16081821  0.65612486  0.85907884     0.06300
C899        C  0.49283841  0.27637794  0.90299417     0.03300
C900        C  0.47437294  0.26291343  0.87058557    -0.12800
C901        C  0.47610515  0.23280609  0.86242844     0.00800
C902        C  0.49584423  0.21628037  0.88783184    -0.11400
C903        C  0.51440461  0.22946133  0.91958165     0.03300
C904        C  0.51319732  0.25944790  0.92634186    -0.10800
H905        H  0.45888526  0.27575901  0.85176108     0.08900
H906        H  0.49682450  0.19298448  0.88298124     0.06400
H907        H  0.52767411  0.26952928  0.95102014     0.06300
C908        C  0.84810448  0.62123411  0.90082071     0.03300
C909        C  0.86286128  0.60153333  0.87156264    -0.12800
C910        C  0.89332533  0.60075030  0.87062628     0.00800
C911        C  0.90894333  0.61921342  0.89992653    -0.11400
C912        C  0.89476994  0.63853251  0.92975856     0.03300
C913        C  0.86440507  0.63963522  0.92986397    -0.10800
H914        H  0.85076411  0.58776226  0.84814715     0.08900
H915        H  0.93241528  0.61853886  0.89951952     0.06400
H916        H  0.85347067  0.65417051  0.95369630     0.06300
C917        C  0.01035605  0.77638703  0.90596279     0.03300
C918        C  0.02925132  0.76146173  0.87566527    -0.12800
C919        C  0.02813833  0.73105365  0.87175105     0.00800
C920        C  0.00868225  0.71561228  0.89944347    -0.11400
C921        C  0.99006069  0.72999090  0.93011236     0.03300
C922        C  0.99069146  0.76035141  0.93276037    -0.10800
H923        H  0.04407850  0.77351355  0.85412902     0.08900
H924        H  0.00808798  0.69215877  0.89728178     0.06400
H925        H  0.97679580  0.77142760  0.95735872     0.06300
N926        N  0.02794800  0.15066284  0.95579047    -0.36400
N927        N  0.02958867  0.08758985  0.95746334    -0.57000
N928        N  0.96646708  0.08766731  0.95368884    -0.36400
N929        N  0.96445165  0.15077176  0.95867885    -0.57000
C930        C  0.05628402  0.14598734  0.96526249     0.27200
C931        C  0.02232573  0.17892569  0.96502476     0.27200
C932        C  0.97176005  0.05912131  0.96005751     0.27200
C933        C  0.93776212  0.09202331  0.96058527     0.27200
C934        C  0.05778001  0.09310125  0.94805019     0.35800
C935        C  0.02498572  0.05946085  0.94605875     0.35800
C936        C  0.96933864  0.17904778  0.94922364     0.35800
C937        C  0.93641257  0.14537078  0.94786821     0.35800
C938        C  0.06862570  0.17153732  0.98132297    -0.21700
C939        C  0.04728895  0.19227906  0.98100438    -0.21700
C940        C  0.94621989  0.04527116  0.97193378    -0.21700
C941        C  0.92482130  0.06593411  0.97214961    -0.21700
C942        C  0.07113216  0.06826311  0.93116341    -0.22800
C943        C  0.05041466  0.04696629  0.93007847    -0.22800
C944        C  0.94416199  0.19177361  0.93340523    -0.22800
C945        C  0.92337400  0.17050190  0.93248430    -0.22800
C946        C  0.07180788  0.12004237  0.95573369    -0.18100
C947        C  0.99615573  0.19360763  0.95500021    -0.18100
C948        C  0.92248128  0.11802350  0.95132810    -0.18100
C949        C  0.99824742  0.04473347  0.95044403    -0.18100
H950        H  0.09094098  0.17524432  0.99080244     0.14800
H951        H  0.05012249  0.21486180  0.99019925     0.14800
H952        H  0.94300592  0.02237845  0.97766288     0.14800
H953        H  0.90205334  0.06175615  0.97776700     0.14800
H954        H  0.09337834  0.06575759  0.92002515     0.13100
H955        H  0.05364320  0.02492928  0.91809906     0.13100
H956        H  0.94115753  0.21392220  0.92260513     0.13100
H957        H  0.90137346  0.17321224  0.92066295     0.13100
H958        H  0.01438919  0.13660051  0.93791809     0.26300
H959        H  0.98062903  0.10227481  0.93867928     0.26300
C960        C  0.33934248  0.12659312  0.89459652     0.03300
C961        C  0.35416454  0.14491928  0.86379754    -0.12800
C962        C  0.38442514  0.14312481  0.85864476     0.00800
C963        C  0.39989642  0.12336367  0.88544611    -0.11400
C964        C  0.38568525  0.10508484  0.91638120     0.03300
C965        C  0.35538577  0.10656199  0.92047571    -0.10800
H966        H  0.34216928  0.16038153  0.84359147     0.08900
H967        H  0.42327246  0.12222056  0.88234352     0.06400
H968        H  0.34436610  0.09243207  0.94438764     0.06300
C969        C  0.99911243  0.46195506  0.90963202     0.03300
C970        C  0.98092903  0.47691804  0.87895898    -0.12800
C971        C  0.98385628  0.50707465  0.87321104     0.00800
C972        C  0.00438600  0.52220956  0.89956266    -0.11400
C973        C  0.02225695  0.50774866  0.93048531     0.03300
C974        C  0.01996773  0.47763358  0.93475573    -0.10800
H975        H  0.96513054  0.46502138  0.85880216     0.08900
H976        H  0.00633100  0.54551443  0.89641237     0.06400
H977        H  0.03329215  0.46662725  0.95971277     0.06300
C978        C  0.65424643  0.11142936  0.89876835     0.03300
C979        C  0.63981347  0.09423082  0.86564549    -0.12800
C980        C  0.60957465  0.09660362  0.86003364     0.00800
C981        C  0.59400568  0.11619299  0.88791066    -0.11400
C982        C  0.60808497  0.13370429  0.92037245     0.03300
C983        C  0.63816856  0.13137160  0.92546236    -0.10800
H984        H  0.65203046  0.07905045  0.84457523     0.08900
H985        H  0.57070177  0.11787557  0.88440414     0.06400
H986        H  0.64903695  0.14464154  0.95108367     0.06300
C987        C  0.99858599  0.46124470  0.63776597     0.03300
C988        C  0.01924300  0.47664767  0.61182660    -0.12800
C989        C  0.02266173  0.50667000  0.61796310     0.00800
C990        C  0.00576073  0.52120312  0.65088276    -0.11400
C991        C  0.98530987  0.50630684  0.67748734     0.03300
C992        C  0.98176913  0.47628981  0.67076218    -0.10800
H993        H  0.03206665  0.46542860  0.58593896     0.08900
H994        H  0.00822289  0.54443457  0.65515409     0.06400
H995        H  0.96578979  0.46470023  0.69083624     0.06300
N996        N  0.96510105  0.14882044  0.59499889    -0.36400
N997        N  0.96494064  0.08573507  0.59006883    -0.57000
N998        N  0.02778254  0.08710721  0.59353270    -0.36400
N999        N  0.02816450  0.15037866  0.59216863    -0.57000
C1000       C  0.93695458  0.14345151  0.58520769     0.27200
C1001       C  0.96992402  0.17726685  0.58726733     0.27200
C1002       C  0.02293958  0.05871581  0.58389191     0.27200
C1003       C  0.05617567  0.09244759  0.58538180     0.27200
C1004       C  0.93685005  0.09069854  0.60079334     0.35800
C1005       C  0.97020759  0.05777832  0.60066234     0.35800
C1006       C  0.02275868  0.17846191  0.60322232     0.35800
C1007       C  0.05632981  0.14548815  0.60238836     0.35800
C1008       C  0.92386303  0.16868746  0.57037277    -0.21700
C1009       C  0.94462329  0.19005545  0.57192303    -0.21700
C1010       C  0.04846494  0.04603350  0.56864795    -0.21700
C1011       C  0.06939443  0.06716470  0.56995073    -0.21700
C1012       C  0.92416529  0.06579319  0.61782014    -0.22800
C1013       C  0.94532687  0.04497990  0.61798106    -0.22800
C1014       C  0.04770093  0.19158348  0.61960198    -0.22800
C1015       C  0.06889639  0.17073375  0.61922729    -0.22800
C1016       C  0.92223305  0.11714893  0.59385206    -0.18100
C1017       C  0.99565542  0.19246933  0.59828042    -0.18100
C1018       C  0.07094721  0.11866993  0.59603565    -0.18100
C1019       C  0.99692027  0.04344022  0.59322633    -0.18100
H1020       H  0.90144229  0.17165297  0.56085271     0.14800
H1021       H  0.94121314  0.21262813  0.56396767     0.14800
H1022       H  0.05213884  0.02356235  0.55963446     0.14800
H1023       H  0.09207171  0.06370919  0.56259443     0.14800
H1024       H  0.90207032  0.06299902  0.62952060     0.13100
H1025       H  0.94268354  0.02303239  0.63000272     0.13100
H1026       H  0.05029393  0.21372885  0.63143076     0.13100
H1027       H  0.09090343  0.17380989  0.63092192     0.13100
H1028       H  0.97896733  0.13499982  0.61225440     0.26300
H1029       H  0.01368045  0.10088357  0.61099793     0.26300
C1030       C  0.65446318  0.12094121  0.63650777     0.03300
C1031       C  0.63824799  0.13990208  0.60901370    -0.12800
C1032       C  0.60788506  0.13853044  0.60856335     0.00800
C1033       C  0.59365277  0.11879991  0.63700297    -0.11400
C1034       C  0.60928049  0.10016211  0.66534563     0.03300
C1035       C  0.63967090  0.10089032  0.66438572    -0.10800
H1036       H  0.64921049  0.15546673  0.58741772     0.08900
H1037       H  0.57018385  0.11796714  0.63714713     0.06400
H1038       H  0.65170586  0.08618582  0.68589507     0.06300
C1039       C  0.01404257  0.77561497  0.64148713     0.03300
C1040       C  0.99425901  0.75960523  0.61458559    -0.12800
C1041       C  0.99268685  0.72937733  0.61768069     0.00800
C1042       C  0.01095314  0.71494666  0.64810856    -0.11400
C1043       C  0.03062439  0.73032487  0.67579573     0.03300
C1044       C  0.03235885  0.76066317  0.67195576    -0.10800
H1045       H  0.98075816  0.77052824  0.58980631     0.08900
H1046       H  0.00970004  0.69155219  0.65038754     0.06400
H1047       H  0.04709829  0.77264342  0.69393055     0.06300
C1048       C  0.34054992  0.12661916  0.62720349     0.03300
C1049       C  0.35649690  0.10646178  0.60074554    -0.12800
C1050       C  0.38686424  0.10563354  0.60332715     0.00800
C1051       C  0.40111734  0.12439699  0.63394033    -0.11400
C1052       C  0.38553930  0.14411552  0.66162199     0.03300
C1053       C  0.35526986  0.14559953  0.65730387    -0.10800
H1054       H  0.34532479  0.09232591  0.57666917     0.08900
H1055       H  0.42452690  0.12355590  0.63629408     0.06400
H1056       H  0.34304813  0.16069321  0.67854250     0.06300
O1057       O  0.06499053  0.51418112  0.97538707    -0.72800
O1058       O  0.11013419  0.55734298  0.57236596    -0.73700
O1059       O  0.06521637  0.51331781  0.57174893    -0.62400
O1060       O  0.10957405  0.55812784  0.97596545    -0.70800
O1061       O  0.07540617  0.59195849  0.97736736    -0.70300
O1062       O  0.03229239  0.54833817  0.57356644    -0.61600
O1063       O  0.07621959  0.59140825  0.57384941    -0.74100
O1064       O  0.03177530  0.54895344  0.97709849    -0.72900
Cu1065     Cu  0.08872227  0.53449291  0.52381997     1.04600
Cu1066     Cu  0.05281019  0.57129879  0.52556494     1.04300
C1067       C  0.04083140  0.52452933  0.96193992     0.93400
C1068       C  0.10060637  0.58168913  0.58731604     0.92600
C1069       C  0.04120747  0.52359874  0.58670874     0.84700
C1070       C  0.09965716  0.58245154  0.96243499     0.91000
O1071       O  0.52312834  0.18779004  0.96436012    -0.72800
O1072       O  0.56656770  0.14636979  0.56210748    -0.73700
O1073       O  0.52337572  0.19012990  0.56093394    -0.62400
O1074       O  0.56632509  0.14397732  0.96556582    -0.70800
O1075       O  0.60125656  0.17704918  0.96488773    -0.70300
O1076       O  0.55698865  0.22450139  0.55910271    -0.61600
O1077       O  0.60099450  0.17995036  0.56119703    -0.74100
O1078       O  0.55730016  0.22167145  0.96288230    -0.72900
Cu1079     Cu  0.54371230  0.16592642  0.51328894     1.04600
Cu1080     Cu  0.58038300  0.20199968  0.51188866     1.04300
C1081       C  0.53279515  0.21187663  0.94954461     0.93400
C1082       C  0.59094035  0.15602292  0.57618590     0.92600
C1083       C  0.53275609  0.21490636  0.57404811     0.84700
C1084       C  0.59101492  0.15267321  0.95133785     0.91000
O1085       O  0.94803030  0.72355141  0.97734029    -0.72800
O1086       O  0.90358000  0.68005750  0.57449887    -0.73700
O1087       O  0.94937681  0.72319845  0.57373222    -0.62400
O1088       O  0.90257504  0.68032923  0.97777921    -0.70800
O1089       O  0.93624376  0.64605119  0.97615354    -0.70300
O1090       O  0.98208155  0.68797616  0.57181149    -0.61600
O1091       O  0.93727250  0.64579554  0.57273840    -0.74100
O1092       O  0.98078832  0.68839675  0.97533158    -0.72900
Cu1093     Cu  0.92467192  0.70305040  0.52595494     1.04600
Cu1094     Cu  0.96016445  0.66588585  0.52396031     1.04300
C1095       C  0.97186283  0.71310143  0.96199222     0.93400
C1096       C  0.91318113  0.65561129  0.58800111     0.92600
C1097       C  0.97359088  0.71265043  0.58671990     0.84700
C1098       C  0.91198614  0.65599283  0.96253971     0.91000
O1099       O  0.43784949  0.01756362  0.55619509    -0.72800
O1100       O  0.39284600  0.06228324  0.96117058    -0.73700
O1101       O  0.43689452  0.01695160  0.96005952    -0.62400
O1102       O  0.39370780  0.06267091  0.55764902    -0.70800
O1103       O  0.42841290  0.09595315  0.55704796    -0.70300
O1104       O  0.47078249  0.05107466  0.95935006    -0.61600
O1105       O  0.42771428  0.09538662  0.96043676    -0.74100
O1106       O  0.47161307  0.05182230  0.55566816    -0.72900
Cu1107     Cu  0.41405863  0.03866557  0.50878916     1.04600
Cu1108     Cu  0.45075596  0.07467597  0.50806938     1.04300
C1109       C  0.46237888  0.02733736  0.56959999     0.93400
C1110       C  0.40293398  0.08644879  0.94700026     0.92600
C1111       C  0.46131197  0.02643026  0.94574267     0.84700
C1112       C  0.40389176  0.08697549  0.57164105     0.91000
O1113       O  0.03767059  0.69042349  0.72530554    -0.72800
O1114       O  0.07884637  0.64684327  0.82296509    -0.73700
O1115       O  0.03633327  0.69081501  0.82204490    -0.62400
O1116       O  0.08022959  0.64660046  0.72651312    -0.70800
O1117       O  0.11532460  0.67943862  0.72687804    -0.70300
O1118       O  0.07020501  0.72490830  0.82348448    -0.61600
O1119       O  0.11382954  0.67979187  0.82430258    -0.74100
O1120       O  0.07159038  0.72446905  0.72578368    -0.72900
Cu1121     Cu  0.05715725  0.66761031  0.77416251     1.04600
Cu1122     Cu  0.09402019  0.70340959  0.77517186     1.04300
C1123       C  0.04762499  0.71439749  0.71042740     0.93400
C1124       C  0.10304561  0.65593985  0.83855788     0.92600
C1125       C  0.04589370  0.71494664  0.83757992     0.84700
C1126       C  0.10476868  0.65550190  0.71196720     0.91000
O1127       O  0.42512639  0.15186504  0.71184850    -0.72800
O1128       O  0.46781211  0.19404278  0.81020957    -0.73700
O1129       O  0.42439083  0.15118399  0.80867693    -0.62400
O1130       O  0.46832648  0.19499364  0.71351446    -0.70800
O1131       O  0.43520477  0.22973868  0.71401906    -0.70300
O1132       O  0.39014608  0.18482924  0.81026605    -0.61600
O1133       O  0.43483087  0.22892275  0.81213165    -0.74100
O1134       O  0.39075144  0.18539511  0.71227416    -0.72900
Cu1135     Cu  0.44748096  0.17195995  0.76103185     1.04600
Cu1136     Cu  0.41145719  0.20851907  0.76219826     1.04300
C1137       C  0.40113717  0.16149225  0.69670234     0.93400
C1138       C  0.45857230  0.21805993  0.82664833     0.92600
C1139       C  0.40028998  0.16069575  0.82433886     0.84700
C1140       C  0.45910739  0.21927697  0.69883249     0.91000
O1141       O  0.94261932  0.51321813  0.82383589    -0.72800
O1142       O  0.90014853  0.55774115  0.72541457    -0.73700
O1143       O  0.94371670  0.51276573  0.72634534    -0.62400
O1144       O  0.89892669  0.55839226  0.82266447    -0.70800
O1145       O  0.93402423  0.59124492  0.82289070    -0.70300
O1146       O  0.97776344  0.54668439  0.72734389    -0.61600
O1147       O  0.93515388  0.59067402  0.72622788    -0.74100
O1148       O  0.97661453  0.54717386  0.82398473    -0.72900
Cu1149     Cu  0.92009757  0.53428093  0.77455055     1.04600
Cu1150     Cu  0.95702101  0.57002057  0.77516701     1.04300
C1151       C  0.96670687  0.52316371  0.83887343     0.93400
C1152       C  0.91086432  0.58156212  0.71094325     0.92600
C1153       C  0.96802505  0.52257225  0.71201991     0.84700
C1154       C  0.90941929  0.58242158  0.83729126     0.91000
O1155       O  0.56913584  0.09091767  0.71362526    -0.72800
O1156       O  0.52611007  0.04637743  0.80785812    -0.73700
O1157       O  0.56959374  0.08935302  0.81007298    -0.62400
O1158       O  0.52583685  0.04797424  0.71128818    -0.70800
O1159       O  0.55925256  0.01348802  0.70901745    -0.70300
O1160       O  0.60393456  0.05579446  0.80870386    -0.61600
O1161       O  0.55927633  0.01166280  0.80674024    -0.74100
O1162       O  0.60373309  0.05758504  0.71135001    -0.72900
Cu1163     Cu  0.54658307  0.06972837  0.76079811     1.04600
Cu1164     Cu  0.58280185  0.03332752  0.75882826     1.04300
C1165       C  0.59336821  0.08179651  0.69807476     0.93400
C1166       C  0.53536572  0.02202679  0.82207973     0.92600
C1167       C  0.59374516  0.07964422  0.82464646     0.84700
C1168       C  0.53532193  0.02406215  0.69478340     0.91000
C1169       C  0.30854219  0.12792785  0.62306249    -0.03000
C1170       C  0.29464760  0.15434728  0.61457794    -0.05600
C1171       C  0.26454282  0.15546332  0.60944180    -0.20700
C1172       C  0.24753815  0.13032244  0.61340084     0.25000
C1173       C  0.26155599  0.10381552  0.62205419    -0.18200
C1174       C  0.29172779  0.10268371  0.62669408    -0.08200
C1175       C  0.21557513  0.13274819  0.60660498    -0.18500
C1176       C  0.19613817  0.11254083  0.61975680    -0.23300
C1177       C  0.16415543  0.11516193  0.61318646     0.27100
C1178       C  0.14575960  0.09670884  0.63802757    -0.20100
C1179       C  0.11567291  0.09807967  0.63279350    -0.09700
C1180       C  0.10316499  0.11765528  0.60197991    -0.10300
C1181       C  0.12148910  0.13603400  0.57695249    -0.03200
C1182       C  0.15159246  0.13482432  0.58232599    -0.18300
H1183       H  0.30716996  0.17406092  0.61109706     0.10800
H1184       H  0.25447991  0.17612151  0.60234024     0.10900
H1185       H  0.24957360  0.08376317  0.62429191     0.10500
H1186       H  0.30198476  0.08204453  0.63322609     0.11600
H1187       H  0.20790349  0.15271329  0.59163770     0.11700
H1188       H  0.20363254  0.09358350  0.63789489     0.13600
H1189       H  0.15469465  0.08122710  0.66184422     0.10100
H1190       H  0.10208146  0.08375624  0.65278402     0.12200
H1191       H  0.11248453  0.15109999  0.55268862     0.08900
H1192       H  0.16474121  0.14885625  0.56128735     0.11600
C1193       C  0.99775473  0.01108043  0.59608188    -0.03000
C1194       C  0.97847287  0.99395240  0.57029621    -0.05600
C1195       C  0.97887517  0.96376683  0.57356199    -0.20700
C1196       C  0.99874971  0.94984158  0.60233036     0.25000
C1197       C  0.01797107  0.96701236  0.62850125    -0.18200
C1198       C  0.01738230  0.99726398  0.62543632    -0.08200
C1199       C  0.99763579  0.91761204  0.60533944    -0.18500
C1200       C  0.01872023  0.90109944  0.62359901    -0.23300
C1201       C  0.01686681  0.86893250  0.62768516     0.27100
C1202       C  0.04233523  0.85312525  0.63563889    -0.20100
C1203       C  0.04153831  0.82295756  0.64040428    -0.09700
C1204       C  0.01514006  0.80783076  0.63764259    -0.10300
C1205       C  0.98959243  0.82374837  0.63053089    -0.03200
C1206       C  0.99039148  0.85383120  0.62566824    -0.18300
H1207       H  0.96306845  0.00399075  0.54754476     0.10800
H1208       H  0.96364181  0.95122500  0.55326748     0.10900
H1209       H  0.03304376  0.95742056  0.65222991     0.10500
H1210       H  0.03210488  0.00997336  0.64640046     0.11600
H1211       H  0.97876699  0.90717782  0.59050660     0.11700
H1212       H  0.03866791  0.91122589  0.63498188     0.13600
H1213       H  0.06301440  0.86414542  0.63782106     0.10100
H1214       H  0.06167850  0.81145900  0.64547302     0.12200
H1215       H  0.96875359  0.81300237  0.62948533     0.08900
H1216       H  0.97005674  0.86503208  0.62142062     0.11600
C1217       C  0.68671179  0.12211823  0.63608895    -0.03000
C1218       C  0.70251803  0.11821516  0.67681856    -0.05600
C1219       C  0.73279527  0.11903981  0.67633905    -0.20700
C1220       C  0.74800902  0.12369031  0.63521290     0.25000
C1221       C  0.73225727  0.12840208  0.59467178    -0.18200
C1222       C  0.70199272  0.12735931  0.59502774    -0.08200
C1223       C  0.78019932  0.12421525  0.63607093    -0.18500
C1224       C  0.79668252  0.11763941  0.59907842    -0.23300
C1225       C  0.82886518  0.11748543  0.59969601     0.27100
C1226       C  0.84362232  0.10053636  0.56687191    -0.20100
C1227       C  0.87384641  0.10024293  0.56544031    -0.09700
C1228       C  0.88999836  0.11731218  0.59612248    -0.10300
C1229       C  0.87538010  0.13431113  0.62908021    -0.03200
C1230       C  0.84507403  0.13444616  0.63089158    -0.18300
H1231       H  0.69149354  0.11483543  0.70925430     0.10800
H1232       H  0.74439008  0.11583680  0.70820181     0.10900
H1233       H  0.74319875  0.13334238  0.56276693     0.10500
H1234       H  0.69060069  0.13041379  0.56297342     0.11600
H1235       H  0.79049178  0.12852172  0.66893119     0.11700
H1236       H  0.78630205  0.11056931  0.56745234     0.13600
H1237       H  0.83172318  0.08743291  0.54224684     0.10100
H1238       H  0.88469596  0.08692274  0.54005231     0.12200
H1239       H  0.88747290  0.14754908  0.65325987     0.08900
H1240       H  0.83452055  0.14832006  0.65601551     0.11600
C1241       C  0.99422577  0.42964165  0.62953900    -0.03000
C1242       C  0.99278306  0.41843239  0.58448424    -0.05600
C1243       C  0.99013847  0.38859380  0.57656114    -0.20700
C1244       C  0.98899840  0.36910731  0.61336353     0.25000
C1245       C  0.98971402  0.38044385  0.65860878    -0.18200
C1246       C  0.99212607  0.41036777  0.66650167    -0.08200
C1247       C  0.98923385  0.33733455  0.60264392    -0.18500
C1248       C  0.98467747  0.31629058  0.63377865    -0.23300
C1249       C  0.98752001  0.28472487  0.62300630     0.27100
C1250       C  0.97306667  0.26470549  0.65102764    -0.20100
C1251       C  0.97583714  0.23488569  0.64297362    -0.09700
C1252       C  0.99347501  0.22434822  0.60707792    -0.10300
C1253       C  0.00851126  0.24422377  0.57968056    -0.03200
C1254       C  0.00550923  0.27410636  0.58735671    -0.18300
H1255       H  0.99385217  0.43277424  0.55527025     0.10800
H1256       H  0.98954136  0.38065699  0.54138076     0.10900
H1257       H  0.98940477  0.36646202  0.68815731     0.10500
H1258       H  0.99335918  0.41837222  0.70158724     0.11600
H1259       H  0.99348558  0.33110505  0.56714985     0.11700
H1260       H  0.97804187  0.32204053  0.66847385     0.13600
H1261       H  0.95944133  0.27217605  0.67914322     0.10100
H1262       H  0.96424250  0.21993703  0.66485771     0.12200
H1263       H  0.02243432  0.23658325  0.55215064     0.08900
H1264       H  0.01777920  0.28869770  0.56589071     0.11600
C1265       C  0.89070971  0.11581818  0.94129516    -0.03000
C1266       C  0.88106320  0.09735406  0.90581504    -0.05600
C1267       C  0.85156896  0.09489275  0.89572318    -0.20700
C1268       C  0.83083766  0.11072565  0.92086519     0.25000
C1269       C  0.84045042  0.12958869  0.95611448    -0.18200
C1270       C  0.87008580  0.13207338  0.96617238    -0.08200
C1271       C  0.79968028  0.10770069  0.90793594    -0.18500
C1272       C  0.77753253  0.11260943  0.93735648    -0.23300
C1273       C  0.74625977  0.10941330  0.92507485     0.27100
C1274       C  0.72604508  0.10642190  0.96088200    -0.20100
C1275       C  0.69632306  0.10608819  0.95199585    -0.09700
C1276       C  0.68592779  0.10857428  0.90687841    -0.10300
C1277       C  0.70602412  0.11027536  0.87055987    -0.03200
C1278       C  0.73592023  0.11090736  0.87952975    -0.18300
H1279       H  0.89649370  0.08484089  0.88571711     0.10800
H1280       H  0.84490002  0.08042467  0.86816830     0.10900
H1281       H  0.82527587  0.14277636  0.97551047     0.10500
H1282       H  0.87694054  0.14664381  0.99343905     0.11600
H1283       H  0.79505310  0.09962243  0.87356911     0.11700
H1284       H  0.78239927  0.11823752  0.97284584     0.13600
H1285       H  0.73328336  0.10470958  0.99608005     0.10100
H1286       H  0.68134203  0.10431038  0.98059536     0.12200
H1287       H  0.69857590  0.11239550  0.83547779     0.08900
H1288       H  0.75064982  0.11367020  0.85090830     0.11600
C1289       C  0.99745574  0.22570245  0.94842029     0.02600
C1290       C  0.01570399  0.23733375  0.91455435    -0.05600
C1291       C  0.01787312  0.26731517  0.90893668    -0.20700
C1292       C  0.00171178  0.28647360  0.93674288     0.25000
C1293       C  0.98326192  0.27481332  0.97058072    -0.18200
C1294       C  0.98106876  0.24472979  0.97608503    -0.08200
C1295       C  0.00556981  0.31826528  0.92998357    -0.18500
C1296       C  0.98645219  0.33865223  0.94403080    -0.23300
C1297       C  0.99033563  0.37015096  0.93469342     0.27100
C1298       C  0.01788036  0.38284172  0.92955917    -0.20100
C1299       C  0.02064480  0.41248094  0.92076887    -0.09700
C1300       C  0.99600932  0.43020048  0.91695415    -0.10300
C1301       C  0.96853258  0.41758448  0.92251489    -0.03200
C1302       C  0.96577042  0.38796266  0.93168269    -0.18300
H1303       H  0.02843585  0.22312027  0.89257854     0.10800
H1304       H  0.03228664  0.27558680  0.88266818     0.10900
H1305       H  0.97099776  0.28871821  0.99358541     0.10500
H1306       H  0.96697655  0.23628140  0.00253998     0.11600
H1307       H  0.02436183  0.32492470  0.91017876     0.11700
H1308       H  0.96633395  0.33209478  0.96027099     0.13600
H1309       H  0.03738421  0.37010414  0.93307465     0.10100
H1310       H  0.04213343  0.42157410  0.91687077     0.12200
H1311       H  0.94918541  0.43075897  0.92072463     0.08900
H1312       H  0.94431931  0.37886901  0.93610385     0.11600
C1313       C  0.10423416  0.12115918  0.95336478    -0.03000
C1314       C  0.12107113  0.10241756  0.97993706    -0.05600
C1315       C  0.15130035  0.10316798  0.97769930    -0.20700
C1316       C  0.16558183  0.12253447  0.94844684     0.25000
C1317       C  0.14878235  0.14153940  0.92189294    -0.18200
C1318       C  0.11845405  0.14068912  0.92414783    -0.08200
C1319       C  0.19788693  0.12241487  0.94730969    -0.18500
C1320       C  0.21369083  0.13183387  0.91128928    -0.23300
C1321       C  0.24596912  0.13040600  0.90863454     0.27100
C1322       C  0.25931776  0.13254456  0.86529649    -0.20100
C1323       C  0.28948462  0.13140856  0.86077887    -0.09700
C1324       C  0.30718980  0.12820214  0.89960045    -0.10300
C1325       C  0.29390286  0.12638716  0.94314447    -0.03200
C1326       C  0.26368467  0.12759374  0.94770007    -0.18300
H1327       H  0.11077534  0.08715939  0.00251566     0.10800
H1328       H  0.16357936  0.08842942  0.99883019     0.10900
H1329       H  0.15886739  0.15734075  0.89978594     0.10500
H1330       H  0.10603363  0.15531880  0.90305950     0.11600
H1331       H  0.20876491  0.11246313  0.97611451     0.11700
H1332       H  0.20254168  0.13949522  0.88097886     0.13600
H1333       H  0.24631216  0.13484272  0.83462024     0.10100
H1334       H  0.29894076  0.13257759  0.82671162     0.12200
H1335       H  0.30692402  0.12449129  0.97386568     0.08900
H1336       H  0.25449621  0.12680485  0.98192466     0.11600
C1337       C  0.99767528  0.01269519  0.94279136    -0.03000
C1338       C  0.98252230  0.00077640  0.90535527    -0.05600
C1339       C  0.98182717  0.97074876  0.89811244    -0.20700
C1340       C  0.99642493  0.95201229  0.92791590     0.25000
C1341       C  0.01159834  0.96401459  0.96546276    -0.18200
C1342       C  0.01236604  0.99406180  0.97250880    -0.08200
C1343       C  0.99448448  0.92015056  0.91971354    -0.18500
C1344       C  0.01495196  0.90124982  0.93320327    -0.23300
C1345       C  0.01312805  0.86946971  0.92424160     0.27100
C1346       C  0.03880732  0.85338584  0.91976242    -0.20100
C1347       C  0.03795240  0.82333627  0.91263327    -0.09700
C1348       C  0.01133502  0.80857718  0.91066384    -0.10300
C1349       C  0.98560426  0.82470598  0.91523360    -0.03200
C1350       C  0.98645984  0.85477829  0.92192561    -0.18300
H1351       H  0.97124082  0.01477800  0.88173789     0.10800
H1352       H  0.96993882  0.96211707  0.86899083     0.10900
H1353       H  0.02240021  0.95030142  0.98998453     0.10500
H1354       H  0.02413627  0.00279740  0.00150717     0.11600
H1355       H  0.97625989  0.91224386  0.89969042     0.11700
H1356       H  0.03457609  0.90938894  0.94923026     0.13600
H1357       H  0.05963544  0.86412941  0.92181913     0.10100
H1358       H  0.05815607  0.81154101  0.90990899     0.12200
H1359       H  0.96473459  0.81402772  0.91371814     0.08900
H1360       H  0.96623820  0.86632196  0.92636404     0.11600
C1361       C  0.61134993  0.61634273  0.92882285    -0.03000
C1362       C  0.62693907  0.59889635  0.95927053    -0.05600
C1363       C  0.65713681  0.59721970  0.95655316    -0.20700
C1364       C  0.67252877  0.61320815  0.92368359     0.25000
C1365       C  0.65693409  0.63086314  0.89326609    -0.18200
C1366       C  0.62665464  0.63235701  0.89582414    -0.08200
C1367       C  0.70458842  0.60986086  0.92094334    -0.18500
C1368       C  0.72246225  0.63024801  0.90393929    -0.23300
C1369       C  0.75454870  0.62710345  0.90288329     0.27100
C1370       C  0.77175639  0.65209044  0.90583355    -0.20100
C1371       C  0.80197230  0.65013228  0.90508479    -0.09700
C1372       C  0.81582329  0.62308660  0.90082142    -0.10300
C1373       C  0.79855793  0.59804839  0.89681955    -0.03200
C1374       C  0.76825499  0.60001228  0.89786608    -0.18300
H1375       H  0.61558048  0.58614705  0.98463049     0.10800
H1376       H  0.66852529  0.58331503  0.98019530     0.10900
H1377       H  0.66790321  0.64289273  0.86663302     0.10500
H1378       H  0.61508647  0.64562274  0.87149613     0.11600
H1379       H  0.71385982  0.59049530  0.93581323     0.11700
H1380       H  0.71355958  0.65084310  0.89319033     0.13600
H1381       H  0.76176835  0.67323890  0.90917892     0.10100
H1382       H  0.81450876  0.66992302  0.90730739     0.12200
H1383       H  0.80846157  0.57687372  0.89355527     0.08900
H1384       H  0.75565327  0.58035385  0.89420458     0.11600
C1385       C  0.49148074  0.30800318  0.91302998    -0.03000
C1386       C  0.49460628  0.31836326  0.95846674    -0.05600
C1387       C  0.49649549  0.34804495  0.96776889    -0.20700
C1388       C  0.49487470  0.36816200  0.93208022     0.25000
C1389       C  0.49109061  0.35785952  0.88665309    -0.18200
C1390       C  0.48926135  0.32809820  0.87732596    -0.08200
C1391       C  0.49860925  0.39947640  0.94335228    -0.18500
C1392       C  0.48875295  0.42078686  0.91630836    -0.23300
C1393       C  0.49268611  0.45226838  0.92596990     0.27100
C1394       C  0.47550303  0.47186614  0.90161167    -0.20100
C1395       C  0.47900115  0.50167977  0.90762697    -0.09700
C1396       C  0.49981996  0.51269888  0.93818863    -0.10300
C1397       C  0.51719732  0.49325433  0.96251624    -0.03200
C1398       C  0.51374733  0.46328733  0.95649698    -0.18300
H1399       H  0.49597019  0.30345244  0.98690097     0.10800
H1400       H  0.49943828  0.35531117  0.00298709     0.10900
H1401       H  0.49061113  0.37252931  0.85792572     0.10500
H1402       H  0.48733050  0.32078074  0.84196511     0.11600
H1403       H  0.50891786  0.40489567  0.97577462     0.11700
H1404       H  0.47625000  0.41508332  0.88602482     0.13600
H1405       H  0.45934478  0.46407748  0.87755367     0.10100
H1406       H  0.46554550  0.51626522  0.88808563     0.12200
H1407       H  0.53371960  0.50134550  0.98556650     0.08900
H1408       H  0.52806709  0.44904898  0.97494917     0.11600
C1409       C  0.19447156  0.62621557  0.91945801    -0.03000
C1410       C  0.20513284  0.62682885  0.96471390    -0.05600
C1411       C  0.23485949  0.62892775  0.97303228    -0.20700
C1412       C  0.25463249  0.63004928  0.93635300     0.25000
C1413       C  0.24393556  0.63026104  0.89102139    -0.18200
C1414       C  0.21415208  0.62835191  0.88270971    -0.08200
C1415       C  0.28616147  0.63111330  0.94659363    -0.18500
C1416       C  0.30627739  0.62018061  0.91759278    -0.23300
C1417       C  0.33794016  0.61979839  0.92692665     0.27100
C1418       C  0.35536845  0.60102554  0.90048856    -0.20100
C1419       C  0.38537858  0.60069548  0.90602887    -0.09700
C1420       C  0.39867469  0.61933196  0.93791005    -0.10300
C1421       C  0.38143961  0.63803894  0.96472424    -0.03200
C1422       C  0.35129751  0.63826731  0.95944188    -0.18300
H1423       H  0.19042426  0.62576978  0.99376354     0.10800
H1424       H  0.24246821  0.62912797  0.00824734     0.10900
H1425       H  0.25844655  0.63208715  0.86189131     0.10500
H1426       H  0.20653791  0.62802124  0.84752415     0.11600
H1427       H  0.29257886  0.63927041  0.98016620     0.11700
H1428       H  0.29918304  0.60967772  0.88600870     0.13600
H1429       H  0.34573661  0.58670482  0.87505581     0.10100
H1430       H  0.39835836  0.58632626  0.88468657     0.12200
H1431       H  0.39140616  0.65273919  0.98920797     0.08900
H1432       H  0.33881521  0.65348133  0.97989105     0.11600
C1433       C  0.50292645  0.92989295  0.89948079    -0.03000
C1434       C  0.50216761  0.91779899  0.94367666    -0.05600
C1435       C  0.50267429  0.88771404  0.94934118    -0.20700
C1436       C  0.50399243  0.86890695  0.91106505     0.25000
C1437       C  0.50492577  0.88102415  0.86678390    -0.18200
C1438       C  0.50456902  0.91114910  0.86114935    -0.08200
C1439       C  0.50274666  0.83699171  0.91885120    -0.18500
C1440       C  0.51087861  0.81676904  0.88749199    -0.23300
C1441       C  0.50886558  0.78496862  0.89561909     0.27100
C1442       C  0.52722822  0.76613554  0.87091015    -0.20100
C1443       C  0.52607104  0.73616454  0.87778129    -0.09700
C1444       C  0.50645215  0.72430790  0.90951470    -0.10300
C1445       C  0.48747532  0.74306972  0.93323743    -0.03200
C1446       C  0.48852208  0.77300054  0.92621830    -0.18300
H1447       H  0.50120444  0.93164061  0.97395486     0.10800
H1448       H  0.50186264  0.87909393  0.98384842     0.10900
H1449       H  0.50508874  0.86745208  0.83627008     0.10500
H1450       H  0.50471920  0.91979322  0.82666583     0.11600
H1451       H  0.49554544  0.83000557  0.95253297     0.11700
H1452       H  0.52059422  0.82352616  0.85531912     0.13600
H1453       H  0.54274821  0.77467619  0.84651708     0.10100
H1454       H  0.54058525  0.72218394  0.85841292     0.12200
H1455       H  0.47207931  0.73454542  0.95784815     0.08900
H1456       H  0.47332277  0.78660609  0.94480034     0.11600
C1457       C  0.40143060  0.62576874  0.59611782    -0.03000
C1458       C  0.39111364  0.64420575  0.63125743    -0.05600
C1459       C  0.36139181  0.64643217  0.64030941    -0.20700
C1460       C  0.34130099  0.63001033  0.61490549     0.25000
C1461       C  0.35171408  0.61149706  0.57968833    -0.18200
C1462       C  0.38145686  0.60929188  0.57073558    -0.08200
C1463       C  0.30977920  0.63339655  0.62531295    -0.18500
C1464       C  0.28982329  0.61307991  0.61471531    -0.23300
C1465       C  0.25827021  0.61561018  0.62518653     0.27100
C1466       C  0.24164736  0.59017300  0.62514741    -0.20100
C1467       C  0.21176860  0.59116765  0.63244564    -0.09700
C1468       C  0.19745113  0.61774662  0.63934560    -0.10300
C1469       C  0.21408407  0.64331362  0.64018886    -0.03200
C1470       C  0.24418044  0.64230091  0.63308256    -0.18300
H1471       H  0.40613588  0.65700812  0.65153075     0.10800
H1472       H  0.35407077  0.66095818  0.66743624     0.10900
H1473       H  0.33705885  0.59913858  0.55820727     0.10500
H1474       H  0.38887329  0.59504114  0.54349292     0.11600
H1475       H  0.30319179  0.65266014  0.64429710     0.11700
H1476       H  0.29694502  0.59278684  0.59932045     0.13600
H1477       H  0.25182930  0.56932013  0.61924550     0.10100
H1478       H  0.19981826  0.57097863  0.63246293     0.12200
H1479       H  0.20372448  0.66417904  0.64480750     0.08900
H1480       H  0.25604671  0.66249319  0.63237868     0.11600
C1481       C  0.50680365  0.93171417  0.61311811    -0.03000
C1482       C  0.53345485  0.91788789  0.62166903    -0.05600
C1483       C  0.53594603  0.88773194  0.61881175    -0.20700
C1484       C  0.51227418  0.87068951  0.60551435     0.25000
C1485       C  0.48594888  0.88425912  0.59509597    -0.18200
C1486       C  0.48313619  0.91438938  0.59934710    -0.08200
C1487       C  0.51484045  0.83871629  0.60585236    -0.18500
C1488       C  0.50504178  0.82188388  0.57130027    -0.23300
C1489       C  0.50714867  0.78988254  0.57261347     0.27100
C1490       C  0.51699503  0.77448578  0.53378872    -0.20100
C1491       C  0.51798657  0.74416185  0.53395173    -0.09700
C1492       C  0.50863812  0.72878747  0.57257783    -0.10300
C1493       C  0.49885882  0.74419566  0.61151630    -0.03200
C1494       C  0.49828222  0.77450539  0.61167407    -0.18300
H1495       H  0.55251628  0.93026778  0.63082979     0.10800
H1496       H  0.55647964  0.87766419  0.62681484     0.10900
H1497       H  0.46723010  0.87144359  0.58546845     0.10500
H1498       H  0.46211739  0.92388779  0.59319074     0.11600
H1499       H  0.52617270  0.82884260  0.63438688     0.11700
H1500       H  0.49639162  0.83183999  0.54057948     0.13600
H1501       H  0.52418467  0.78598923  0.50354941     0.10100
H1502       H  0.52592514  0.73260739  0.50401362     0.12200
H1503       H  0.49148776  0.73268164  0.64165609     0.08900
H1504       H  0.49026824  0.78592449  0.64185150     0.11600
C1505       C  0.81766477  0.61487131  0.63943434    -0.03000
C1506       C  0.80391562  0.58781290  0.63514399    -0.05600
C1507       C  0.77380658  0.58595797  0.63035468    -0.20700
C1508       C  0.75656297  0.61102305  0.63048753     0.25000
C1509       C  0.77031665  0.63818226  0.63462275    -0.18200
C1510       C  0.80052331  0.64004512  0.63891630    -0.08200
C1511       C  0.72461995  0.60785475  0.62408509    -0.18500
C1512       C  0.70494142  0.62782821  0.63782191    -0.23300
C1513       C  0.67298358  0.62480292  0.63076464     0.27100
C1514       C  0.65406981  0.64234035  0.65692105    -0.20100
C1515       C  0.62405312  0.64117500  0.64998985    -0.09700
C1516       C  0.61224068  0.62258143  0.61640354    -0.10300
C1517       C  0.63099547  0.60475395  0.59069187    -0.03200
C1518       C  0.66099698  0.60593845  0.59746226    -0.18300
H1519       H  0.81653748  0.56804808  0.63467613     0.10800
H1520       H  0.76391588  0.56477948  0.62662394     0.10900
H1521       H  0.75797340  0.65806219  0.63359186     0.10500
H1522       H  0.81049772  0.66120703  0.64211974     0.11600
H1523       H  0.71717437  0.58757949  0.60912254     0.11700
H1524       H  0.71232593  0.64693841  0.65641214     0.13600
H1525       H  0.66257122  0.65716264  0.68265626     0.10100
H1526       H  0.61002495  0.65508682  0.67037610     0.12200
H1527       H  0.62236914  0.59022214  0.56475243     0.08900
H1528       H  0.67459124  0.59257073  0.57561787     0.11600
C1529       C  0.50677736  0.51439904  0.58320102    -0.03000
C1530       C  0.53291489  0.49846468  0.57978860    -0.05600
C1531       C  0.53302505  0.46815996  0.57814735    -0.20700
C1532       C  0.50706804  0.45250214  0.57736188     0.25000
C1533       C  0.48108286  0.46797887  0.57326550    -0.18200
C1534       C  0.48107317  0.49836924  0.57477782    -0.08200
C1535       C  0.50828516  0.42025065  0.57958731    -0.18500
C1536       C  0.48651075  0.40366740  0.59598001    -0.23300
C1537       C  0.48892650  0.37177143  0.60363725     0.27100
C1538       C  0.46349382  0.35526262  0.60832921    -0.20100
C1539       C  0.46480385  0.32541651  0.61668506    -0.09700
C1540       C  0.49164912  0.31133495  0.62060835    -0.10300
C1541       C  0.51708459  0.32791600  0.61679102    -0.03200
C1542       C  0.51579215  0.35772773  0.60867172    -0.18300
H1543       H  0.55368000  0.50900990  0.57713644     0.10800
H1544       H  0.55360470  0.45690147  0.57780140     0.10900
H1545       H  0.46074956  0.45676334  0.56814472     0.10500
H1546       H  0.46065616  0.50885001  0.56848840     0.11600
H1547       H  0.52865308  0.41018429  0.56992659     0.11700
H1548       H  0.46610904  0.41382821  0.60534116     0.13600
H1549       H  0.44249010  0.36547027  0.60516796     0.10100
H1550       H  0.44481377  0.31323963  0.61916752     0.12200
H1551       H  0.53809079  0.31781991  0.62058831     0.08900
H1552       H  0.53594312  0.36960905  0.60727877     0.11600
loop_ 
_geom_bond_atom_site_label_1 
_geom_bond_atom_site_label_2 
_geom_bond_distance 
_geom_bond_site_symmetry_2 
_ccdc_geom_bond_type 
C1            C2   1.410       .  A
C1            C6   1.413       .  A
C1          C764   1.492       .  S
C2            C3   1.403       .  A
C2            H7   1.084       .  S
C3            C4   1.399       .  A
C3          C307   1.478       .  S
C4            C5   1.404       .  A
C4            H8   1.084       .  S
C5            C6   1.409       .  A
C5          C364   1.484       .  S
C6            H9   1.083       .  S
N10          C15   1.354       .  A
N10          C14   1.356       .  A
N10          H42   1.038       .  S
N11          C18   1.352       .  A
N11          C19   1.350       .  A
N12          C17   1.359       .  A
N12          C16   1.360       .  A
N12          H43   1.042       .  S
N13          C20   1.358       .  A
N13          C21   1.356       .  A
C14          C22   1.387       .  A
C14          C30   1.418       .  A
C15          C31   1.417       .  A
C15          C23   1.387       .  A
C16          C24   1.385       .  A
C16          C33   1.421       .  A
C17          C32   1.424       .  A
C17          C25   1.387       .  A
C18          C30   1.416       .  A
C18          C26   1.386       .  A
C19          C33   1.414       .  A
C19          C27   1.387       .  A
C20          C28   1.382       .  A
C20          C31   1.417       .  A
C21          C29   1.388       .  A
C21          C32   1.425       .  A
C22          C23   1.374       .  A
C22          H34   1.081       .  S
C23          H35   1.082       .  S
C24          C25   1.372       .  A
C24          H36   1.082       .  S
C25          H37   1.082       .  S
C26          C27   1.371       .  A
C26          H38   1.082       .  S
C27          H39   1.082       .  S
C28          C29   1.370       .  A
C28          H40   1.082       .  S
C29          H41   1.082       .  S
C30         C716   1.490       .  S
C31         C740   1.498       .  S
C32         C753   1.536       .  S
C33         C681   1.496       .  S
C44          C45   1.410       .  A
C44          C49   1.411       .  A
C44         C729   1.491       .  S
C45          C46   1.406       .  A
C45          H50   1.084       .  S
C46          C47   1.401       .  A
C46         C320   1.477       .  S
C47          C48   1.402       .  A
C47          H51   1.084       .  S
C48          C49   1.407       .  A
C48         C376   1.481       .  S
C49          H52   1.083       .  S
C53          C54   1.413       .  A
C53          C58   1.412       .  A
C53         C705   1.500       .  S
C54          C55   1.407   1_565  A
C54          H59   1.083       .  S
C55          C56   1.400       .  A
C55         C333   1.477       .  S
C56          C57   1.402       .  A
C56          H60   1.084       .  S
C57          C58   1.404   1_545  A
C57         C392   1.479       .  S
C58          H61   1.082       .  S
C62          C63   1.410       .  A
C62          C67   1.413       .  A
C62         C692   1.493       .  S
C63          C64   1.401       .  A
C63          H68   1.083       .  S
C64          C65   1.396       .  A
C64         C292   1.474       .  S
C65          C66   1.402       .  A
C65          H69   1.084       .  S
C66          C67   1.410       .  A
C66         C350   1.479       .  S
C67          H70   1.083       .  S
C71          C72   1.412       .  A
C71          C76   1.411       .  A
C71         C657   1.492       .  S
C72          C73   1.408   1_565  A
C72          H77   1.083       .  S
C73          C74   1.403       .  A
C73         C390   1.481       .  S
C74          C75   1.397       .  A
C74          H78   1.084       .  S
C75          C76   1.405   1_545  A
C75         C335   1.478       .  S
C76          H79   1.084       .  S
N80          C85   1.353       .  A
N80          C84   1.352       .  A
N80         H112   1.036       .  S
N81          C88   1.354       .  A
N81          C89   1.352       .  A
N82          C87   1.356       .  A
N82          C86   1.356       .  A
N82         H113   1.038       .  S
N83          C90   1.352       .  A
N83          C91   1.352       .  A
C84          C92   1.386       .  A
C84         C100   1.413       .  A
C85         C101   1.414       .  A
C85          C93   1.387       .  A
C86          C94   1.386       .  A
C86         C103   1.419       .  A
C87         C102   1.420       .  A
C87          C95   1.387       .  A
C88         C100   1.415       .  A
C88          C96   1.386       .  A
C89         C103   1.415       .  A
C89          C97   1.386       .  A
C90          C98   1.386       .  A
C90         C101   1.413       .  A
C91          C99   1.387       .  A
C91         C102   1.415       .  A
C92          C93   1.375       .  A
C92         H104   1.082       .  S
C93         H105   1.080       .  S
C94          C95   1.377       .  A
C94         H106   1.082       .  S
C95         H107   1.082       .  S
C96          C97   1.373       .  A
C96         H108   1.082       .  S
C97         H109   1.082       .  S
C98          C99   1.372       .  A
C98         H110   1.082       .  S
C99         H111   1.082       .  S
C100        C620   1.491       .  S
C101        C644   1.487       .  S
C102        C668   1.498       .  S
C103        C585   1.495       .  S
C114        C115   1.406       .  A
C114        C119   1.409       .  A
C114        C633   1.485       .  S
C115        C116   1.400       .  A
C115        H120   1.084       .  S
C116        C117   1.400       .  A
C116        C294   1.472       .  S
C117        C118   1.404       .  A
C117        H121   1.084       .  S
C118        C119   1.407       .  A
C118        C348   1.480       .  S
C119        H122   1.083       .  S
C123        C124   1.412       .  A
C123        C128   1.404       .  A
C123        C609   1.487       .  S
C124        C125   1.410       .  A
C124        H129   1.083       .  S
C125        C126   1.406       .  A
C125        C362   1.481       .  S
C126        C127   1.397       .  A
C126        H130   1.084       .  S
C127        C128   1.397       .  A
C127        C305   1.470       .  S
C128        H131   1.084       .  S
C132        C133   1.413       .  A
C132        C137   1.411       .  A
C132        C596   1.493       .  S
C133        C134   1.407       .  A
C133        H138   1.083       .  S
C134        C135   1.400       .  A
C134        C378   1.479       .  S
C135        C136   1.399       .  A
C135        H139   1.084       .  S
C136        C137   1.403       .  A
C136        C322   1.476       .  S
C137        H140   1.083       .  S
C141        C142   1.412       .  A
C141        C146   1.409   1_455  A
C141        C572   1.491       .  S
C142        C143   1.408       .  A
C142        H147   1.083       .  S
C143        C144   1.403       .  A
C143        C349   1.480       .  S
C144        C145   1.399   1_455  A
C144        H148   1.084       .  S
C145        C146   1.403       .  A
C145        C319   1.477       .  S
C146        H149   1.084       .  S
N150        C155   1.354       .  A
N150        C154   1.356       .  A
N150        H182   1.038       .  S
N151        C158   1.354       .  A
N151        C159   1.354       .  A
N152        C157   1.355       .  A
N152        C156   1.355       .  A
N152        H183   1.037       .  S
N153        C160   1.355       .  A
N153        C161   1.356       .  A
C154        C162   1.387       .  A
C154        C170   1.421       .  A
C155        C171   1.419   1_455  A
C155        C163   1.386       .  A
C156        C164   1.385       .  A
C156        C173   1.418       .  A
C157        C172   1.421       .  A
C157        C165   1.388       .  A
C158        C170   1.418       .  A
C158        C166   1.387       .  A
C159        C173   1.415   1_455  A
C159        C167   1.385       .  A
C160        C168   1.385       .  A
C160        C171   1.418       .  A
C161        C169   1.387       .  A
C161        C172   1.421       .  A
C162        C163   1.375       .  A
C162        H174   1.081       .  S
C163        H175   1.081       .  S
C164        C165   1.374       .  A
C164        H176   1.082       .  S
C165        H177   1.081       .  S
C166        C167   1.371       .  A
C166        H178   1.082       .  S
C167        H179   1.082       .  S
C168        C169   1.373       .  A
C168        H180   1.082       .  S
C169        H181   1.081       .  S
C170        C537   1.499       .  S
C171        C513   1.497       .  S
C172        C489   1.500       .  S
C173        C561   1.494       .  S
C184        C185   1.413       .  A
C184        C189   1.411       .  A
C184        C548   1.493       .  S
C185        C186   1.407       .  A
C185        H190   1.083       .  S
C186        C187   1.404       .  A
C186        C363   1.483       .  S
C187        C188   1.401       .  A
C187        H191   1.084       .  S
C188        C189   1.405       .  A
C188        C334   1.480       .  S
C189        H192   1.083       .  S
C193        C194   1.413       .  A
C193        C198   1.406   1_655  A
C193        C524   1.490       .  S
C194        C195   1.410       .  A
C194        H199   1.083       .  S
C195        C196   1.403   1_655  A
C195        C375   1.483       .  S
C196        C197   1.398       .  A
C196        H200   1.084       .  S
C197        C198   1.401       .  A
C197        C291   1.471       .  S
C198        H201   1.084       .  S
C202        C203   1.411       .  A
C202        C207   1.408       .  A
C202        C500   1.489       .  S
C203        C204   1.411       .  A
C203        H208   1.083       .  S
C204        C205   1.405       .  A
C204        C391   1.481       .  S
C205        C206   1.398       .  A
C205        H209   1.084       .  S
C206        C207   1.402       .  A
C206        C308   1.476       .  S
C207        H210   1.084       .  S
C211        C212   1.410   1_655  A
C211        C216   1.410       .  A
C211        C465   1.490       .  S
C212        C213   1.404       .  A
C212        H217   1.084       .  S
C213        C214   1.399       .  A
C213        C293   1.476       .  S
C214        C215   1.403   1_455  A
C214        H218   1.084       .  S
C215        C216   1.407       .  A
C215        C377   1.479       .  S
C216        H219   1.083       .  S
N220        C225   1.353       .  A
N220        C224   1.354       .  A
N220        H252   1.039       .  S
N221        C228   1.352       .  A
N221        C229   1.352       .  A
N222        C227   1.354       .  A
N222        C226   1.356       .  A
N222        H253   1.038       .  S
N223        C230   1.356       .  A
N223        C231   1.355       .  A
C224        C232   1.386       .  A
C224        C240   1.415       .  A
C225        C241   1.415       .  A
C225        C233   1.387       .  A
C226        C234   1.386       .  A
C226        C243   1.419   1_455  A
C227        C242   1.421       .  A
C227        C235   1.387       .  A
C228        C240   1.412       .  A
C228        C236   1.385       .  A
C229        C243   1.415       .  A
C229        C237   1.387       .  A
C230        C238   1.385       .  A
C230        C241   1.418   1_455  A
C231        C239   1.387       .  A
C231        C242   1.421       .  A
C232        C233   1.375       .  A
C232        H244   1.082       .  S
C233        H245   1.081       .  S
C234        C235   1.373       .  A
C234        H246   1.081       .  S
C235        H247   1.080       .  S
C236        C237   1.371       .  A
C236        H248   1.082       .  S
C237        H249   1.082       .  S
C238        C239   1.373       .  A
C238        H250   1.082       .  S
C239        H251   1.082       .  S
C240        C452   1.490       .  S
C241        C476   1.494       .  S
C242        C404   1.499       .  S
C243        C417   1.497       .  S
C254        C255   1.409       .  A
C254        C259   1.411       .  A
C254        C441   1.490       .  S
C255        C256   1.403       .  A
C255        H260   1.083       .  S
C256        C257   1.398       .  A
C256        C306   1.474       .  S
C257        C258   1.400       .  A
C257        H261   1.084       .  S
C258        C259   1.404       .  A
C258        C389   1.475       .  S
C259        H262   1.083       .  S
C263        C264   1.409   1_455  A
C263        C268   1.413       .  A
C263        C428   1.493       .  S
C264        C265   1.401       .  A
C264        H269   1.083       .  S
C265        C266   1.399   1_655  A
C265        C321   1.475       .  S
C266        C267   1.404       .  A
C266        H270   1.084       .  S
C267        C268   1.408       .  A
C267        C347   1.481       .  S
C268        H271   1.083       .  S
C272        C273   1.408       .  A
C272        C277   1.408       .  A
C272        C393   1.485       .  S
C273        C274   1.405       .  A
C273        H278   1.084       .  S
C274        C275   1.401       .  A
C274        C336   1.479       .  S
C275        C276   1.405       .  A
C275        H279   1.084       .  S
C276        C277   1.406       .  A
C276        C361   1.480       .  S
C277        H280   1.084       .  S
O281        C291   1.278       .  A
O281      Cu1065   2.012       .  S
O282        C292   1.279       .  A
O282       Cu289   2.015       .  S
O283        C293   1.279       .  A
O283       Cu289   2.022       .  S
O284        C294   1.279       .  A
O284      Cu1065   2.018       .  S
O285        C294   1.276       .  A
O285      Cu1066   1.994       .  S
O286        C293   1.277       .  A
O286       Cu290   1.997       .  S
O287        C292   1.277       .  A
O287       Cu290   1.996       .  S
O288        C291   1.276       .  A
O288      Cu1066   1.993       .  S
Cu289      O1057   2.012   1_554  S
Cu289      O1060   2.018   1_554  S
Cu289      Cu290   2.375       .  S
Cu290      O1061   1.994   1_554  S
Cu290      O1064   1.993   1_554  S
O295        C305   1.276       .  A
O295      Cu1079   1.997       .  S
O296        C306   1.277       .  A
O296       Cu303   1.996       .  S
O297        C307   1.278       .  A
O297       Cu303   2.002       .  S
O298        C308   1.277       .  A
O298      Cu1079   2.001       .  S
O299        C308   1.279       .  A
O299      Cu1080   2.020       .  S
O300        C307   1.279       .  A
O300       Cu304   2.023       .  S
O301        C306   1.278       .  A
O301       Cu304   2.010       .  S
O302        C305   1.278       .  A
O302      Cu1080   2.008       .  S
Cu303      O1071   1.997   1_554  S
Cu303      O1074   2.001   1_554  S
Cu303      Cu304   2.374       .  S
Cu304      O1075   2.020   1_554  S
Cu304      O1078   2.008   1_554  S
O309        C319   1.279       .  A
O309      Cu1093   2.018       .  S
O310        C320   1.279       .  A
O310       Cu317   2.021       .  S
O311        C321   1.280       .  A
O311       Cu317   2.020       .  S
O312        C322   1.279       .  A
O312      Cu1093   2.021       .  S
O313        C322   1.277       .  A
O313      Cu1094   1.994       .  S
O314        C321   1.276       .  A
O314       Cu318   1.995       .  S
O315        C320   1.278       .  A
O315       Cu318   2.001       .  S
O316        C319   1.278       .  A
O316      Cu1094   2.001       .  S
Cu317      O1085   2.018   1_554  S
Cu317      O1088   2.021   1_554  S
Cu317      Cu318   2.374       .  S
Cu318      O1089   1.994   1_554  S
Cu318      O1092   2.001   1_554  S
O323        C333   1.280       .  A
O323       Cu331   2.024       .  S
O324        C334   1.280       .  A
O324      Cu1107   2.027       .  S
O325        C335   1.279       .  A
O325      Cu1107   2.021       .  S
O326        C336   1.279       .  A
O326       Cu331   2.022       .  S
O327        C336   1.278       .  A
O327       Cu332   2.005       .  S
O328        C335   1.278       .  A
O328      Cu1108   2.002       .  S
O329        C334   1.277       .  A
O329      Cu1108   2.001       .  S
O330        C333   1.277       .  A
O330       Cu332   2.000       .  S
Cu331      O1100   2.027   1_554  S
Cu331      O1101   2.021   1_554  S
Cu331      Cu332   2.373       .  S
Cu332      O1104   2.002   1_554  S
Cu332      O1105   2.001   1_554  S
O337        C347   1.277       .  A
O337       Cu345   1.995       .  S
O338        C348   1.277       .  A
O338       Cu345   1.994       .  S
O339        C349   1.277       .  A
O339       Cu345   1.993       .  S
O340        C350   1.277       .  A
O340       Cu345   1.989       .  S
O341        C350   1.280       .  A
O341       Cu346   2.030       .  S
O342        C349   1.280       .  A
O342       Cu346   2.032       .  S
O343        C348   1.280       .  A
O343       Cu346   2.027       .  S
O344        C347   1.280       .  A
O344       Cu346   2.030       .  S
Cu345      Cu346   2.371       .  S
O351        C361   1.276       .  A
O351       Cu359   1.988       .  S
O352        C362   1.276       .  A
O352       Cu359   1.986       .  S
O353        C363   1.277       .  A
O353       Cu359   1.997       .  S
O354        C364   1.278       .  A
O354       Cu359   1.996       .  S
O355        C364   1.280       .  A
O355       Cu360   2.034       .  S
O356        C363   1.281       .  A
O356       Cu360   2.034       .  S
O357        C362   1.281       .  A
O357       Cu360   2.035       .  S
O358        C361   1.281       .  A
O358       Cu360   2.034       .  S
Cu359      Cu360   2.370       .  S
O365        C375   1.280       .  A
O365       Cu373   2.030       .  S
O366        C376   1.280       .  A
O366       Cu373   2.026       .  S
O367        C377   1.280       .  A
O367       Cu373   2.025       .  S
O368        C378   1.279       .  A
O368       Cu373   2.027       .  S
O369        C378   1.277       .  A
O369       Cu374   1.994       .  S
O370        C377   1.277       .  A
O370       Cu374   1.993       .  S
O371        C376   1.277       .  A
O371       Cu374   1.999       .  S
O372        C375   1.278       .  A
O372       Cu374   1.997       .  S
Cu373      Cu374   2.371       .  S
O379        C389   1.275       .  A
O379       Cu387   1.984       .  S
O380        C390   1.276       .  A
O380       Cu387   1.987       .  S
O381        C391   1.278       .  A
O381       Cu387   1.996       .  S
O382        C392   1.276       .  A
O382       Cu387   1.994       .  S
O383        C392   1.280       .  A
O383       Cu388   2.025       .  S
O384        C391   1.279       .  A
O384       Cu388   2.027       .  S
O385        C390   1.280       .  A
O385       Cu388   2.034       .  S
O386        C389   1.280       .  A
O386       Cu388   2.028       .  S
Cu387      Cu388   2.372       .  S
C393        C394   1.403       .  A
C393        C398   1.404       .  A
C394        C395   1.400       .  A
C394        H407   1.083       .  S
C395        C396   1.406       .  A
C395        H408   1.083       .  S
C396        C397   1.410       .  A
C396        C399   1.494       .  S
C397        C398   1.401       .  A
C397        H409   1.080       .  S
C398        H410   1.083       .  S
C399        C400   1.351       .  D
C399        H411   1.084       .  S
C400        C401   1.495       .  S
C400        H412   1.084       .  S
C401        C402   1.406       .  A
C401        C406   1.410       .  A
C402        C403   1.400       .  A
C402        H413   1.083       .  S
C403        C404   1.405       .  A
C403        H414   1.083       .  S
C404        C405   1.404       .  A
C405        C406   1.401       .  A
C405        H415   1.080       .  S
C406        H416   1.080       .  S
C417        C418   1.404   1_545  A
C417        C422   1.405   1_645  A
C418        C419   1.398       .  A
C418        H431   1.081   1_565  S
C419        C420   1.405       .  A
C419        H432   1.083       .  S
C420        C421   1.410   1_655  A
C420        C423   1.492       .  S
C421        C422   1.401       .  A
C421        H433   1.080       .  S
C422        H434   1.083   1_565  S
C423        C424   1.351   1_655  D
C423        H435   1.084       .  S
C424        C425   1.493       .  S
C424        H436   1.084       .  S
C425        C426   1.406       .  A
C425        C430   1.408   1_455  A
C426        C427   1.401       .  A
C426        H437   1.083       .  S
C427        C428   1.406       .  A
C427        H438   1.082       .  S
C428        C429   1.407   1_455  A
C429        C430   1.398       .  A
C429        H439   1.083       .  S
C430        H440   1.080       .  S
C441        C442   1.407       .  A
C441        C446   1.407       .  A
C442        C443   1.399       .  A
C442        H455   1.083       .  S
C443        C444   1.403       .  A
C443        H456   1.083       .  S
C444        C445   1.406       .  A
C444        C447   1.487       .  S
C445        C446   1.398       .  A
C445        H457   1.081       .  S
C446        H458   1.083       .  S
C447        C448   1.347       .  D
C447        H459   1.085       .  S
C448        C449   1.486       .  S
C448        H460   1.086       .  S
C449        C450   1.403       .  A
C449        C454   1.409       .  A
C450        C451   1.396       .  A
C450        H461   1.084       .  S
C451        C452   1.401       .  A
C451        H462   1.078       .  S
C452        C453   1.404       .  A
C453        C454   1.400       .  A
C453        H463   1.083       .  S
C454        H464   1.081       .  S
C465        C466   1.405       .  A
C465        C470   1.405       .  A
C466        C467   1.400       .  A
C466        H479   1.083       .  S
C467        C468   1.406       .  A
C467        H480   1.083       .  S
C468        C469   1.411       .  A
C468        C471   1.496       .  S
C469        C470   1.402       .  A
C469        H481   1.080       .  S
C470        H482   1.083       .  S
C471        C472   1.350       .  D
C471        H483   1.086       .  S
C472        C473   1.493       .  S
C472        H484   1.084       .  S
C473        C474   1.405       .  A
C473        C478   1.410   1_655  A
C474        C475   1.400       .  A
C474        H485   1.083       .  S
C475        C476   1.405       .  A
C475        H486   1.083       .  S
C476        C477   1.403   1_655  A
C477        C478   1.402       .  A
C477        H487   1.081       .  S
C478        H488   1.081       .  S
C489        C490   1.405       .  A
C489        C494   1.406       .  A
C490        C491   1.399       .  A
C490        H503   1.083       .  S
C491        C492   1.403       .  A
C491        H504   1.083       .  S
C492        C493   1.411       .  A
C492        C495   1.494       .  S
C493        C494   1.405       .  A
C493        H505   1.082       .  S
C494        H506   1.082       .  S
C495        C496   1.349       .  D
C495        H507   1.085       .  S
C496        C497   1.496       .  S
C496        H508   1.086       .  S
C497        C498   1.403       .  A
C497        C502   1.412       .  A
C498        C499   1.398       .  A
C498        H509   1.082       .  S
C499        C500   1.405       .  A
C499        H510   1.083       .  S
C500        C501   1.406       .  A
C501        C502   1.406       .  A
C501        H511   1.083       .  S
C502        H512   1.081       .  S
C513        C514   1.404   1_655  A
C513        C518   1.405       .  A
C514        C515   1.399       .  A
C514        H527   1.083       .  S
C515        C516   1.405       .  A
C515        H528   1.083       .  S
C516        C517   1.410   1_455  A
C516        C519   1.493       .  S
C517        C518   1.403       .  A
C517        H529   1.081       .  S
C518        H530   1.081       .  S
C519        C520   1.350   1_455  D
C519        H531   1.085       .  S
C520        C521   1.492       .  S
C520        H532   1.085       .  S
C521        C522   1.408   1_655  A
C521        C526   1.405       .  A
C522        C523   1.400       .  A
C522        H533   1.082       .  S
C523        C524   1.407   1_455  A
C523        H534   1.083       .  S
C524        C525   1.405       .  A
C525        C526   1.401       .  A
C525        H535   1.083       .  S
C526        H536   1.083       .  S
C537        C538   1.403       .  A
C537        C542   1.406       .  A
C538        C539   1.397       .  A
C538        H551   1.077       .  S
C539        C540   1.403       .  A
C539        H552   1.083       .  S
C540        C541   1.410       .  A
C540        C543   1.492       .  S
C541        C542   1.402       .  A
C541        H553   1.081       .  S
C542        H554   1.083       .  S
C543        C544   1.350       .  D
C543        H555   1.085       .  S
C544        C545   1.494       .  S
C544        H556   1.085       .  S
C545        C546   1.405       .  A
C545        C550   1.410       .  A
C546        C547   1.400       .  A
C546        H557   1.083       .  S
C547        C548   1.405       .  A
C547        H558   1.083       .  S
C548        C549   1.408       .  A
C549        C550   1.402       .  A
C549        H559   1.083       .  S
C550        H560   1.081       .  S
C561        C562   1.404       .  A
C561        C566   1.403   1_645  A
C562        C563   1.400   1_545  A
C562        H575   1.083       .  S
C563        C564   1.405       .  A
C563        H576   1.083       .  S
C564        C565   1.408   1_655  A
C564        C567   1.490       .  S
C565        C566   1.400       .  A
C565        H577   1.082       .  S
C566        H578   1.079   1_565  S
C567        C568   1.349   1_655  D
C567        H579   1.086       .  S
C568        C569   1.490       .  S
C568        H580   1.086       .  S
C569        C570   1.404       .  A
C569        C574   1.407   1_455  A
C570        C571   1.401       .  A
C570        H581   1.083       .  S
C571        C572   1.406       .  A
C571        H582   1.083       .  S
C572        C573   1.408   1_455  A
C573        C574   1.400       .  A
C573        H583   1.083       .  S
C574        H584   1.082       .  S
C585        C586   1.404       .  A
C585        C590   1.405       .  A
C586        C587   1.398       .  A
C586        H599   1.082       .  S
C587        C588   1.404       .  A
C587        H600   1.083       .  S
C588        C589   1.409       .  A
C588        C591   1.490       .  S
C589        C590   1.402       .  A
C589        H601   1.082       .  S
C590        H602   1.083       .  S
C591        C592   1.348       .  D
C591        H603   1.086       .  S
C592        C593   1.489       .  S
C592        H604   1.086       .  S
C593        C594   1.402       .  A
C593        C598   1.408       .  A
C594        C595   1.398       .  A
C594        H605   1.083       .  S
C595        C596   1.407       .  A
C595        H606   1.083       .  S
C596        C597   1.408       .  A
C597        C598   1.402       .  A
C597        H607   1.083       .  S
C598        H608   1.082       .  S
C609        C610   1.408       .  A
C609        C614   1.403       .  A
C610        C611   1.397       .  A
C610        H623   1.083       .  S
C611        C612   1.402       .  A
C611        H624   1.083       .  S
C612        C613   1.411       .  A
C612        C615   1.489       .  S
C613        C614   1.400       .  A
C613        H625   1.081       .  S
C614        H626   1.083       .  S
C615        C616   1.346       .  D
C615        H627   1.085       .  S
C616        C617   1.488       .  S
C616        H628   1.085       .  S
C617        C618   1.403       .  A
C617        C622   1.410       .  A
C618        C619   1.395       .  A
C618        H629   1.083       .  S
C619        C620   1.403       .  A
C619        H630   1.083       .  S
C620        C621   1.403       .  A
C621        C622   1.402       .  A
C621        H631   1.081       .  S
C622        H632   1.081       .  S
C633        C634   1.407       .  A
C633        C638   1.404       .  A
C634        C635   1.398       .  A
C634        H647   1.083       .  S
C635        C636   1.403       .  A
C635        H648   1.084       .  S
C636        C637   1.410       .  A
C636        C639   1.488       .  S
C637        C638   1.400       .  A
C637        H649   1.082       .  S
C638        H650   1.083       .  S
C639        C640   1.347       .  D
C639        H651   1.085       .  S
C640        C641   1.488       .  S
C640        H652   1.086       .  S
C641        C642   1.404       .  A
C641        C646   1.410       .  A
C642        C643   1.396       .  A
C642        H653   1.083       .  S
C643        C644   1.401       .  A
C643        H654   1.083       .  S
C644        C645   1.403       .  A
C645        C646   1.401       .  A
C645        H655   1.082       .  S
C646        H656   1.081       .  S
C657        C658   1.407       .  A
C657        C662   1.406       .  A
C658        C659   1.400       .  A
C658        H671   1.083       .  S
C659        C660   1.406       .  A
C659        H672   1.084       .  S
C660        C661   1.410       .  A
C660        C663   1.494       .  S
C661        C662   1.402       .  A
C661        H673   1.081       .  S
C662        H674   1.083       .  S
C663        C664   1.351       .  D
C663        H675   1.085       .  S
C664        C665   1.492       .  S
C664        H676   1.085       .  S
C665        C666   1.405       .  A
C665        C670   1.408       .  A
C666        C667   1.401       .  A
C666        H677   1.083       .  S
C667        C668   1.405       .  A
C667        H678   1.083       .  S
C668        C669   1.406       .  A
C669        C670   1.400       .  A
C669        H679   1.083       .  S
C670        H680   1.082       .  S
C681        C682   1.405       .  A
C681        C686   1.402       .  A
C682        C683   1.400       .  A
C682        H695   1.083       .  S
C683        C684   1.405       .  A
C683        H696   1.083       .  S
C684        C685   1.410       .  A
C684        C687   1.493       .  S
C685        C686   1.400       .  A
C685        H697   1.081       .  S
C686        H698   1.079       .  S
C687        C688   1.348       .  D
C687        H699   1.085       .  S
C688        C689   1.492       .  S
C688        H700   1.085       .  S
C689        C690   1.402       .  A
C689        C694   1.410       .  A
C690        C691   1.396       .  A
C690        H701   1.083       .  S
C691        C692   1.406       .  A
C691        H702   1.083       .  S
C692        C693   1.408       .  A
C693        C694   1.405       .  A
C693        H703   1.083       .  S
C694        H704   1.081       .  S
C705        C706   1.411       .  A
C705        C710   1.411       .  A
C706        C707   1.398       .  A
C706        H719   1.082       .  S
C707        C708   1.400       .  A
C707        H720   1.083       .  S
C708        C709   1.403       .  A
C708        C711   1.481       .  S
C709        C710   1.401       .  A
C709        H721   1.083       .  S
C710        H722   1.082       .  S
C711        C712   1.343       .  D
C711        H723   1.087       .  S
C712        C713   1.481       .  S
C712        H724   1.086       .  S
C713        C714   1.402       .  A
C713        C718   1.405       .  A
C714        C715   1.401       .  A
C714        H725   1.083       .  S
C715        C716   1.401       .  A
C715        H726   1.079       .  S
C716        C717   1.404       .  A
C717        C718   1.399       .  A
C717        H727   1.083       .  S
C718        H728   1.083       .  S
C729        C730   1.405       .  A
C729        C734   1.407       .  A
C730        C731   1.400       .  A
C730        H743   1.083       .  S
C731        C732   1.405       .  A
C731        H744   1.083       .  S
C732        C733   1.409       .  A
C732        C735   1.494       .  S
C733        C734   1.403       .  A
C733        H745   1.081       .  S
C734        H746   1.083       .  S
C735        C736   1.351       .  D
C735        H747   1.084       .  S
C736        C737   1.497       .  S
C736        H748   1.085       .  S
C737        C738   1.407       .  A
C737        C742   1.410       .  A
C738        C739   1.402       .  A
C738        H749   1.083       .  S
C739        C740   1.405       .  A
C739        H750   1.083       .  S
C740        C741   1.403       .  A
C741        C742   1.401       .  A
C741        H751   1.081       .  S
C742        H752   1.081       .  S
C753        C754   1.417       .  A
C753        C758   1.419       .  A
C754        C755   1.399       .  A
C754        H767   1.078       .  S
C755        C756   1.399       .  A
C755        H768   1.083       .  S
C756        C757   1.403       .  A
C756        C759   1.492       .  S
C757        C758   1.403       .  A
C757        H769   1.082       .  S
C758        H770   1.077       .  S
C759        C760   1.351       .  D
C759        H771   1.084       .  S
C760        C761   1.496       .  S
C760        H772   1.085       .  S
C761        C762   1.406       .  A
C761        C766   1.409       .  A
C762        C763   1.403       .  A
C762        H773   1.083       .  S
C763        C764   1.406       .  A
C763        H774   1.083       .  S
C764        C765   1.406       .  A
C765        C766   1.400       .  A
C765        H775   1.083       .  S
C766        H776   1.080       .  S
C777        C778   1.410       .  A
C777        C782   1.413       .  A
C777       C1540   1.492       .  S
C778        C779   1.403       .  A
C778        H783   1.084       .  S
C779        C780   1.399       .  A
C779       C1083   1.478       .  S
C780        C781   1.404       .  A
C780        H784   1.084       .  S
C781        C782   1.409       .  A
C781       C1140   1.484       .  S
C782        H785   1.083       .  S
N786        C791   1.354       .  A
N786        C790   1.356       .  A
N786        H818   1.038       .  S
N787        C794   1.352       .  A
N787        C795   1.350       .  A
N788        C793   1.359       .  A
N788        C792   1.360       .  A
N788        H819   1.042       .  S
N789        C796   1.358       .  A
N789        C797   1.356       .  A
C790        C798   1.387       .  A
C790        C806   1.418       .  A
C791        C807   1.417       .  A
C791        C799   1.387       .  A
C792        C800   1.385       .  A
C792        C809   1.421       .  A
C793        C808   1.424       .  A
C793        C801   1.387       .  A
C794        C806   1.416       .  A
C794        C802   1.386       .  A
C795        C809   1.414       .  A
C795        C803   1.387       .  A
C796        C804   1.382       .  A
C796        C807   1.417       .  A
C797        C805   1.388       .  A
C797        C808   1.425       .  A
C798        C799   1.374       .  A
C798        H810   1.081       .  S
C799        H811   1.082       .  S
C800        C801   1.372       .  A
C800        H812   1.082       .  S
C801        H813   1.082       .  S
C802        C803   1.371       .  A
C802        H814   1.082       .  S
C803        H815   1.082       .  S
C804        C805   1.370       .  A
C804        H816   1.082       .  S
C805        H817   1.082       .  S
C806       C1492   1.490       .  S
C807       C1516   1.498       .  S
C808       C1529   1.536       .  S
C809       C1457   1.496       .  S
C820        C821   1.410       .  A
C820        C825   1.411       .  A
C820       C1505   1.491       .  S
C821        C822   1.406       .  A
C821        H826   1.084       .  S
C822        C823   1.401       .  A
C822       C1096   1.477       .  S
C823        C824   1.402       .  A
C823        H827   1.084       .  S
C824        C825   1.407       .  A
C824       C1152   1.481       .  S
C825        H828   1.083       .  S
C829        C830   1.413       .  A
C829        C834   1.412       .  A
C829       C1481   1.500       .  S
C830        C831   1.407   1_565  A
C830        H835   1.083       .  S
C831        C832   1.400       .  A
C831       C1109   1.477       .  S
C832        C833   1.402       .  A
C832        H836   1.084       .  S
C833        C834   1.404   1_545  A
C833       C1168   1.479       .  S
C834        H837   1.082       .  S
C838        C839   1.410       .  A
C838        C843   1.413       .  A
C838       C1468   1.493       .  S
C839        C840   1.401       .  A
C839        H844   1.083       .  S
C840        C841   1.396       .  A
C840       C1068   1.474       .  S
C841        C842   1.402       .  A
C841        H845   1.084       .  S
C842        C843   1.410       .  A
C842       C1126   1.479       .  S
C843        H846   1.083       .  S
C847        C848   1.412       .  A
C847        C852   1.411       .  A
C847       C1433   1.492       .  S
C848        C849   1.408   1_565  A
C848        H853   1.083       .  S
C849        C850   1.403       .  A
C849       C1166   1.481       .  S
C850        C851   1.397       .  A
C850        H854   1.084       .  S
C851        C852   1.405   1_545  A
C851       C1111   1.478       .  S
C852        H855   1.084       .  S
N856        C861   1.353       .  A
N856        C860   1.352       .  A
N856        H888   1.036       .  S
N857        C864   1.354       .  A
N857        C865   1.352       .  A
N858        C863   1.356       .  A
N858        C862   1.356       .  A
N858        H889   1.038       .  S
N859        C866   1.352       .  A
N859        C867   1.352       .  A
C860        C868   1.386       .  A
C860        C876   1.413       .  A
C861        C877   1.414       .  A
C861        C869   1.387       .  A
C862        C870   1.386       .  A
C862        C879   1.419       .  A
C863        C878   1.420       .  A
C863        C871   1.387       .  A
C864        C876   1.415       .  A
C864        C872   1.386       .  A
C865        C879   1.415       .  A
C865        C873   1.386       .  A
C866        C874   1.386       .  A
C866        C877   1.413       .  A
C867        C875   1.387       .  A
C867        C878   1.415       .  A
C868        C869   1.375       .  A
C868        H880   1.082       .  S
C869        H881   1.080       .  S
C870        C871   1.377       .  A
C870        H882   1.082       .  S
C871        H883   1.082       .  S
C872        C873   1.373       .  A
C872        H884   1.082       .  S
C873        H885   1.082       .  S
C874        C875   1.372       .  A
C874        H886   1.082       .  S
C875        H887   1.082       .  S
C876       C1396   1.491       .  S
C877       C1420   1.487       .  S
C878       C1444   1.498       .  S
C879       C1361   1.495       .  S
C890        C891   1.406       .  A
C890        C895   1.409       .  A
C890       C1409   1.485       .  S
C891        C892   1.400       .  A
C891        H896   1.084       .  S
C892        C893   1.400       .  A
C892       C1070   1.472       .  S
C893        C894   1.404       .  A
C893        H897   1.084       .  S
C894        C895   1.407       .  A
C894       C1124   1.480       .  S
C895        H898   1.083       .  S
C899        C900   1.412       .  A
C899        C904   1.404       .  A
C899       C1385   1.487       .  S
C900        C901   1.410       .  A
C900        H905   1.083       .  S
C901        C902   1.406       .  A
C901       C1138   1.481       .  S
C902        C903   1.397       .  A
C902        H906   1.084       .  S
C903        C904   1.397       .  A
C903       C1081   1.470       .  S
C904        H907   1.084       .  S
C908        C909   1.413       .  A
C908        C913   1.411       .  A
C908       C1372   1.493       .  S
C909        C910   1.407       .  A
C909        H914   1.083       .  S
C910        C911   1.400       .  A
C910       C1154   1.479       .  S
C911        C912   1.399       .  A
C911        H915   1.084       .  S
C912        C913   1.403       .  A
C912       C1098   1.476       .  S
C913        H916   1.083       .  S
C917        C918   1.412       .  A
C917        C922   1.409   1_455  A
C917       C1348   1.491       .  S
C918        C919   1.408       .  A
C918        H923   1.083       .  S
C919        C920   1.403       .  A
C919       C1125   1.480       .  S
C920        C921   1.399   1_455  A
C920        H924   1.084       .  S
C921        C922   1.403       .  A
C921       C1095   1.477       .  S
C922        H925   1.084       .  S
N926        C931   1.354       .  A
N926        C930   1.356       .  A
N926        H958   1.038       .  S
N927        C934   1.354       .  A
N927        C935   1.354       .  A
N928        C933   1.355       .  A
N928        C932   1.355       .  A
N928        H959   1.037       .  S
N929        C936   1.355       .  A
N929        C937   1.356       .  A
C930        C938   1.387       .  A
C930        C946   1.421       .  A
C931        C947   1.419   1_455  A
C931        C939   1.386       .  A
C932        C940   1.385       .  A
C932        C949   1.418       .  A
C933        C948   1.421       .  A
C933        C941   1.388       .  A
C934        C946   1.418       .  A
C934        C942   1.387       .  A
C935        C949   1.415   1_455  A
C935        C943   1.385       .  A
C936        C944   1.385       .  A
C936        C947   1.418       .  A
C937        C945   1.387       .  A
C937        C948   1.421       .  A
C938        C939   1.375       .  A
C938        H950   1.081       .  S
C939        H951   1.081       .  S
C940        C941   1.374       .  A
C940        H952   1.082       .  S
C941        H953   1.081       .  S
C942        C943   1.371       .  A
C942        H954   1.082       .  S
C943        H955   1.082       .  S
C944        C945   1.373       .  A
C944        H956   1.082       .  S
C945        H957   1.081       .  S
C946       C1313   1.499       .  S
C947       C1289   1.497       .  S
C948       C1265   1.500       .  S
C949       C1337   1.494       .  S
C960        C961   1.413       .  A
C960        C965   1.411       .  A
C960       C1324   1.493       .  S
C961        C962   1.407       .  A
C961        H966   1.083       .  S
C962        C963   1.404       .  A
C962       C1139   1.483       .  S
C963        C964   1.401       .  A
C963        H967   1.084       .  S
C964        C965   1.405       .  A
C964       C1110   1.480       .  S
C965        H968   1.083       .  S
C969        C970   1.413       .  A
C969        C974   1.406   1_655  A
C969       C1300   1.490       .  S
C970        C971   1.410       .  A
C970        H975   1.083       .  S
C971        C972   1.403   1_655  A
C971       C1151   1.483       .  S
C972        C973   1.398       .  A
C972        H976   1.084       .  S
C973        C974   1.401       .  A
C973       C1067   1.471       .  S
C974        H977   1.084       .  S
C978        C979   1.411       .  A
C978        C983   1.408       .  A
C978       C1276   1.489       .  S
C979        C980   1.411       .  A
C979        H984   1.083       .  S
C980        C981   1.405       .  A
C980       C1167   1.481       .  S
C981        C982   1.398       .  A
C981        H985   1.084       .  S
C982        C983   1.402       .  A
C982       C1084   1.476       .  S
C983        H986   1.084       .  S
C987        C988   1.410   1_655  A
C987        C992   1.410       .  A
C987       C1241   1.490       .  S
C988        C989   1.404       .  A
C988        H993   1.084       .  S
C989        C990   1.399       .  A
C989       C1069   1.476       .  S
C990        C991   1.403   1_455  A
C990        H994   1.084       .  S
C991        C992   1.407       .  A
C991       C1153   1.479       .  S
C992        H995   1.083       .  S
N996       C1001   1.353       .  A
N996       C1000   1.354       .  A
N996       H1028   1.039       .  S
N997       C1004   1.352       .  A
N997       C1005   1.352       .  A
N998       C1003   1.354       .  A
N998       C1002   1.356       .  A
N998       H1029   1.038       .  S
N999       C1006   1.356       .  A
N999       C1007   1.355       .  A
C1000      C1008   1.386       .  A
C1000      C1016   1.415       .  A
C1001      C1017   1.415       .  A
C1001      C1009   1.387       .  A
C1002      C1010   1.386       .  A
C1002      C1019   1.419   1_455  A
C1003      C1018   1.421       .  A
C1003      C1011   1.387       .  A
C1004      C1016   1.412       .  A
C1004      C1012   1.385       .  A
C1005      C1019   1.415       .  A
C1005      C1013   1.387       .  A
C1006      C1014   1.385       .  A
C1006      C1017   1.418   1_455  A
C1007      C1015   1.387       .  A
C1007      C1018   1.421       .  A
C1008      C1009   1.375       .  A
C1008      H1020   1.082       .  S
C1009      H1021   1.081       .  S
C1010      C1011   1.373       .  A
C1010      H1022   1.081       .  S
C1011      H1023   1.080       .  S
C1012      C1013   1.371       .  A
C1012      H1024   1.082       .  S
C1013      H1025   1.082       .  S
C1014      C1015   1.373       .  A
C1014      H1026   1.082       .  S
C1015      H1027   1.082       .  S
C1016      C1228   1.490       .  S
C1017      C1252   1.494       .  S
C1018      C1180   1.499       .  S
C1019      C1193   1.497       .  S
C1030      C1031   1.409       .  A
C1030      C1035   1.411       .  A
C1030      C1217   1.490       .  S
C1031      C1032   1.403       .  A
C1031      H1036   1.083       .  S
C1032      C1033   1.398       .  A
C1032      C1082   1.474       .  S
C1033      C1034   1.400       .  A
C1033      H1037   1.084       .  S
C1034      C1035   1.404       .  A
C1034      C1165   1.475       .  S
C1035      H1038   1.083       .  S
C1039      C1040   1.409   1_455  A
C1039      C1044   1.413       .  A
C1039      C1204   1.493       .  S
C1040      C1041   1.401       .  A
C1040      H1045   1.083       .  S
C1041      C1042   1.399   1_655  A
C1041      C1097   1.475       .  S
C1042      C1043   1.404       .  A
C1042      H1046   1.084       .  S
C1043      C1044   1.408       .  A
C1043      C1123   1.481       .  S
C1044      H1047   1.083       .  S
C1048      C1049   1.408       .  A
C1048      C1053   1.408       .  A
C1048      C1169   1.485       .  S
C1049      C1050   1.405       .  A
C1049      H1054   1.084       .  S
C1050      C1051   1.401       .  A
C1050      C1112   1.479       .  S
C1051      C1052   1.405       .  A
C1051      H1055   1.084       .  S
C1052      C1053   1.406       .  A
C1052      C1137   1.480       .  S
C1053      H1056   1.084       .  S
O1057      C1067   1.278       .  A
O1058      C1068   1.279       .  A
O1058     Cu1065   2.015       .  S
O1059      C1069   1.279       .  A
O1059     Cu1065   2.022       .  S
O1060      C1070   1.279       .  A
O1061      C1070   1.276       .  A
O1062      C1069   1.277       .  A
O1062     Cu1066   1.997       .  S
O1063      C1068   1.277       .  A
O1063     Cu1066   1.996       .  S
O1064      C1067   1.276       .  A
Cu1065    Cu1066   2.375       .  S
O1071      C1081   1.276       .  A
O1072      C1082   1.277       .  A
O1072     Cu1079   1.996       .  S
O1073      C1083   1.278       .  A
O1073     Cu1079   2.002       .  S
O1074      C1084   1.277       .  A
O1075      C1084   1.279       .  A
O1076      C1083   1.279       .  A
O1076     Cu1080   2.023       .  S
O1077      C1082   1.278       .  A
O1077     Cu1080   2.010       .  S
O1078      C1081   1.278       .  A
Cu1079    Cu1080   2.374       .  S
O1085      C1095   1.279       .  A
O1086      C1096   1.279       .  A
O1086     Cu1093   2.021       .  S
O1087      C1097   1.280       .  A
O1087     Cu1093   2.020       .  S
O1088      C1098   1.279       .  A
O1089      C1098   1.277       .  A
O1090      C1097   1.276       .  A
O1090     Cu1094   1.995       .  S
O1091      C1096   1.278       .  A
O1091     Cu1094   2.001       .  S
O1092      C1095   1.278       .  A
Cu1093    Cu1094   2.374       .  S
O1099      C1109   1.280       .  A
O1099     Cu1107   2.024       .  S
O1100      C1110   1.280       .  A
O1101      C1111   1.279       .  A
O1102      C1112   1.279       .  A
O1102     Cu1107   2.022       .  S
O1103      C1112   1.278       .  A
O1103     Cu1108   2.005       .  S
O1104      C1111   1.278       .  A
O1105      C1110   1.277       .  A
O1106      C1109   1.277       .  A
O1106     Cu1108   2.000       .  S
Cu1107    Cu1108   2.373       .  S
O1113      C1123   1.277       .  A
O1113     Cu1121   1.995       .  S
O1114      C1124   1.277       .  A
O1114     Cu1121   1.994       .  S
O1115      C1125   1.277       .  A
O1115     Cu1121   1.993       .  S
O1116      C1126   1.277       .  A
O1116     Cu1121   1.989       .  S
O1117      C1126   1.280       .  A
O1117     Cu1122   2.030       .  S
O1118      C1125   1.280       .  A
O1118     Cu1122   2.032       .  S
O1119      C1124   1.280       .  A
O1119     Cu1122   2.027       .  S
O1120      C1123   1.280       .  A
O1120     Cu1122   2.030       .  S
Cu1121    Cu1122   2.371       .  S
O1127      C1137   1.276       .  A
O1127     Cu1135   1.988       .  S
O1128      C1138   1.276       .  A
O1128     Cu1135   1.986       .  S
O1129      C1139   1.277       .  A
O1129     Cu1135   1.997       .  S
O1130      C1140   1.278       .  A
O1130     Cu1135   1.996       .  S
O1131      C1140   1.280       .  A
O1131     Cu1136   2.034       .  S
O1132      C1139   1.281       .  A
O1132     Cu1136   2.034       .  S
O1133      C1138   1.281       .  A
O1133     Cu1136   2.035       .  S
O1134      C1137   1.281       .  A
O1134     Cu1136   2.034       .  S
Cu1135    Cu1136   2.370       .  S
O1141      C1151   1.280       .  A
O1141     Cu1149   2.030       .  S
O1142      C1152   1.280       .  A
O1142     Cu1149   2.026       .  S
O1143      C1153   1.280       .  A
O1143     Cu1149   2.025       .  S
O1144      C1154   1.279       .  A
O1144     Cu1149   2.027       .  S
O1145      C1154   1.277       .  A
O1145     Cu1150   1.994       .  S
O1146      C1153   1.277       .  A
O1146     Cu1150   1.993       .  S
O1147      C1152   1.277       .  A
O1147     Cu1150   1.999       .  S
O1148      C1151   1.278       .  A
O1148     Cu1150   1.997       .  S
Cu1149    Cu1150   2.371       .  S
O1155      C1165   1.275       .  A
O1155     Cu1163   1.984       .  S
O1156      C1166   1.276       .  A
O1156     Cu1163   1.987       .  S
O1157      C1167   1.278       .  A
O1157     Cu1163   1.996       .  S
O1158      C1168   1.276       .  A
O1158     Cu1163   1.994       .  S
O1159      C1168   1.280       .  A
O1159     Cu1164   2.025       .  S
O1160      C1167   1.279       .  A
O1160     Cu1164   2.027       .  S
O1161      C1166   1.280       .  A
O1161     Cu1164   2.034       .  S
O1162      C1165   1.280       .  A
O1162     Cu1164   2.028       .  S
Cu1163    Cu1164   2.372       .  S
C1169      C1170   1.403       .  A
C1169      C1174   1.404       .  A
C1170      C1171   1.400       .  A
C1170      H1183   1.083       .  S
C1171      C1172   1.406       .  A
C1171      H1184   1.083       .  S
C1172      C1173   1.410       .  A
C1172      C1175   1.494       .  S
C1173      C1174   1.401       .  A
C1173      H1185   1.080       .  S
C1174      H1186   1.083       .  S
C1175      C1176   1.351       .  D
C1175      H1187   1.084       .  S
C1176      C1177   1.495       .  S
C1176      H1188   1.084       .  S
C1177      C1178   1.406       .  A
C1177      C1182   1.410       .  A
C1178      C1179   1.400       .  A
C1178      H1189   1.083       .  S
C1179      C1180   1.405       .  A
C1179      H1190   1.083       .  S
C1180      C1181   1.404       .  A
C1181      C1182   1.401       .  A
C1181      H1191   1.080       .  S
C1182      H1192   1.080       .  S
C1193      C1194   1.404   1_545  A
C1193      C1198   1.405   1_645  A
C1194      C1195   1.398       .  A
C1194      H1207   1.081   1_565  S
C1195      C1196   1.405       .  A
C1195      H1208   1.083       .  S
C1196      C1197   1.410   1_655  A
C1196      C1199   1.492       .  S
C1197      C1198   1.401       .  A
C1197      H1209   1.080       .  S
C1198      H1210   1.083   1_565  S
C1199      C1200   1.351   1_655  D
C1199      H1211   1.084       .  S
C1200      C1201   1.493       .  S
C1200      H1212   1.084       .  S
C1201      C1202   1.406       .  A
C1201      C1206   1.408   1_455  A
C1202      C1203   1.401       .  A
C1202      H1213   1.083       .  S
C1203      C1204   1.406       .  A
C1203      H1214   1.082       .  S
C1204      C1205   1.407   1_455  A
C1205      C1206   1.398       .  A
C1205      H1215   1.083       .  S
C1206      H1216   1.080       .  S
C1217      C1218   1.407       .  A
C1217      C1222   1.407       .  A
C1218      C1219   1.399       .  A
C1218      H1231   1.083       .  S
C1219      C1220   1.403       .  A
C1219      H1232   1.083       .  S
C1220      C1221   1.406       .  A
C1220      C1223   1.487       .  S
C1221      C1222   1.398       .  A
C1221      H1233   1.081       .  S
C1222      H1234   1.083       .  S
C1223      C1224   1.347       .  D
C1223      H1235   1.085       .  S
C1224      C1225   1.486       .  S
C1224      H1236   1.086       .  S
C1225      C1226   1.403       .  A
C1225      C1230   1.409       .  A
C1226      C1227   1.396       .  A
C1226      H1237   1.084       .  S
C1227      C1228   1.401       .  A
C1227      H1238   1.078       .  S
C1228      C1229   1.404       .  A
C1229      C1230   1.400       .  A
C1229      H1239   1.083       .  S
C1230      H1240   1.081       .  S
C1241      C1242   1.405       .  A
C1241      C1246   1.405       .  A
C1242      C1243   1.400       .  A
C1242      H1255   1.083       .  S
C1243      C1244   1.406       .  A
C1243      H1256   1.083       .  S
C1244      C1245   1.411       .  A
C1244      C1247   1.496       .  S
C1245      C1246   1.402       .  A
C1245      H1257   1.080       .  S
C1246      H1258   1.083       .  S
C1247      C1248   1.350       .  D
C1247      H1259   1.086       .  S
C1248      C1249   1.493       .  S
C1248      H1260   1.084       .  S
C1249      C1250   1.405       .  A
C1249      C1254   1.410   1_655  A
C1250      C1251   1.400       .  A
C1250      H1261   1.083       .  S
C1251      C1252   1.405       .  A
C1251      H1262   1.083       .  S
C1252      C1253   1.403   1_655  A
C1253      C1254   1.402       .  A
C1253      H1263   1.081       .  S
C1254      H1264   1.081       .  S
C1265      C1266   1.405       .  A
C1265      C1270   1.406       .  A
C1266      C1267   1.399       .  A
C1266      H1279   1.083       .  S
C1267      C1268   1.403       .  A
C1267      H1280   1.083       .  S
C1268      C1269   1.411       .  A
C1268      C1271   1.494       .  S
C1269      C1270   1.405       .  A
C1269      H1281   1.082       .  S
C1270      H1282   1.082       .  S
C1271      C1272   1.349       .  D
C1271      H1283   1.085       .  S
C1272      C1273   1.496       .  S
C1272      H1284   1.086       .  S
C1273      C1274   1.403       .  A
C1273      C1278   1.412       .  A
C1274      C1275   1.398       .  A
C1274      H1285   1.082       .  S
C1275      C1276   1.405       .  A
C1275      H1286   1.083       .  S
C1276      C1277   1.406       .  A
C1277      C1278   1.406       .  A
C1277      H1287   1.083       .  S
C1278      H1288   1.081       .  S
C1289      C1290   1.404   1_655  A
C1289      C1294   1.405       .  A
C1290      C1291   1.399       .  A
C1290      H1303   1.083       .  S
C1291      C1292   1.405       .  A
C1291      H1304   1.083       .  S
C1292      C1293   1.410   1_455  A
C1292      C1295   1.493       .  S
C1293      C1294   1.403       .  A
C1293      H1305   1.081       .  S
C1294      H1306   1.081   1_556  S
C1295      C1296   1.350   1_455  D
C1295      H1307   1.085       .  S
C1296      C1297   1.492       .  S
C1296      H1308   1.085       .  S
C1297      C1298   1.408   1_655  A
C1297      C1302   1.405       .  A
C1298      C1299   1.400       .  A
C1298      H1309   1.082       .  S
C1299      C1300   1.407   1_455  A
C1299      H1310   1.083       .  S
C1300      C1301   1.405       .  A
C1301      C1302   1.401       .  A
C1301      H1311   1.083       .  S
C1302      H1312   1.083       .  S
C1313      C1314   1.403       .  A
C1313      C1318   1.406       .  A
C1314      C1315   1.397       .  A
C1314      H1327   1.077   1_556  S
C1315      C1316   1.403       .  A
C1315      H1328   1.083       .  S
C1316      C1317   1.410       .  A
C1316      C1319   1.492       .  S
C1317      C1318   1.402       .  A
C1317      H1329   1.081       .  S
C1318      H1330   1.083       .  S
C1319      C1320   1.350       .  D
C1319      H1331   1.085       .  S
C1320      C1321   1.494       .  S
C1320      H1332   1.085       .  S
C1321      C1322   1.405       .  A
C1321      C1326   1.410       .  A
C1322      C1323   1.400       .  A
C1322      H1333   1.083       .  S
C1323      C1324   1.405       .  A
C1323      H1334   1.083       .  S
C1324      C1325   1.408       .  A
C1325      C1326   1.402       .  A
C1325      H1335   1.083       .  S
C1326      H1336   1.081       .  S
C1337      C1338   1.404       .  A
C1337      C1342   1.403   1_645  A
C1338      C1339   1.400   1_545  A
C1338      H1351   1.083       .  S
C1339      C1340   1.405       .  A
C1339      H1352   1.083       .  S
C1340      C1341   1.408   1_655  A
C1340      C1343   1.490       .  S
C1341      C1342   1.400       .  A
C1341      H1353   1.082       .  S
C1342      H1354   1.079   1_566  S
C1343      C1344   1.349   1_655  D
C1343      H1355   1.086       .  S
C1344      C1345   1.490       .  S
C1344      H1356   1.086       .  S
C1345      C1346   1.404       .  A
C1345      C1350   1.407   1_455  A
C1346      C1347   1.401       .  A
C1346      H1357   1.083       .  S
C1347      C1348   1.406       .  A
C1347      H1358   1.083       .  S
C1348      C1349   1.408   1_455  A
C1349      C1350   1.400       .  A
C1349      H1359   1.083       .  S
C1350      H1360   1.082       .  S
C1361      C1362   1.404       .  A
C1361      C1366   1.405       .  A
C1362      C1363   1.398       .  A
C1362      H1375   1.082       .  S
C1363      C1364   1.404       .  A
C1363      H1376   1.083       .  S
C1364      C1365   1.409       .  A
C1364      C1367   1.490       .  S
C1365      C1366   1.402       .  A
C1365      H1377   1.082       .  S
C1366      H1378   1.083       .  S
C1367      C1368   1.348       .  D
C1367      H1379   1.086       .  S
C1368      C1369   1.489       .  S
C1368      H1380   1.086       .  S
C1369      C1370   1.402       .  A
C1369      C1374   1.408       .  A
C1370      C1371   1.398       .  A
C1370      H1381   1.083       .  S
C1371      C1372   1.407       .  A
C1371      H1382   1.083       .  S
C1372      C1373   1.408       .  A
C1373      C1374   1.402       .  A
C1373      H1383   1.083       .  S
C1374      H1384   1.082       .  S
C1385      C1386   1.408       .  A
C1385      C1390   1.403       .  A
C1386      C1387   1.397       .  A
C1386      H1399   1.083       .  S
C1387      C1388   1.402       .  A
C1387      H1400   1.083   1_556  S
C1388      C1389   1.411       .  A
C1388      C1391   1.489       .  S
C1389      C1390   1.400       .  A
C1389      H1401   1.081       .  S
C1390      H1402   1.083       .  S
C1391      C1392   1.346       .  D
C1391      H1403   1.085       .  S
C1392      C1393   1.488       .  S
C1392      H1404   1.085       .  S
C1393      C1394   1.403       .  A
C1393      C1398   1.410       .  A
C1394      C1395   1.395       .  A
C1394      H1405   1.083       .  S
C1395      C1396   1.403       .  A
C1395      H1406   1.083       .  S
C1396      C1397   1.403       .  A
C1397      C1398   1.402       .  A
C1397      H1407   1.081       .  S
C1398      H1408   1.081       .  S
C1409      C1410   1.407       .  A
C1409      C1414   1.404       .  A
C1410      C1411   1.398       .  A
C1410      H1423   1.083       .  S
C1411      C1412   1.403       .  A
C1411      H1424   1.084   1_556  S
C1412      C1413   1.410       .  A
C1412      C1415   1.488       .  S
C1413      C1414   1.400       .  A
C1413      H1425   1.082       .  S
C1414      H1426   1.083       .  S
C1415      C1416   1.347       .  D
C1415      H1427   1.085       .  S
C1416      C1417   1.488       .  S
C1416      H1428   1.086       .  S
C1417      C1418   1.404       .  A
C1417      C1422   1.410       .  A
C1418      C1419   1.396       .  A
C1418      H1429   1.083       .  S
C1419      C1420   1.401       .  A
C1419      H1430   1.083       .  S
C1420      C1421   1.403       .  A
C1421      C1422   1.401       .  A
C1421      H1431   1.082       .  S
C1422      H1432   1.081       .  S
C1433      C1434   1.407       .  A
C1433      C1438   1.406       .  A
C1434      C1435   1.400       .  A
C1434      H1447   1.083       .  S
C1435      C1436   1.406       .  A
C1435      H1448   1.084       .  S
C1436      C1437   1.410       .  A
C1436      C1439   1.494       .  S
C1437      C1438   1.402       .  A
C1437      H1449   1.081       .  S
C1438      H1450   1.083       .  S
C1439      C1440   1.351       .  D
C1439      H1451   1.085       .  S
C1440      C1441   1.492       .  S
C1440      H1452   1.085       .  S
C1441      C1442   1.405       .  A
C1441      C1446   1.408       .  A
C1442      C1443   1.401       .  A
C1442      H1453   1.083       .  S
C1443      C1444   1.405       .  A
C1443      H1454   1.083       .  S
C1444      C1445   1.406       .  A
C1445      C1446   1.400       .  A
C1445      H1455   1.083       .  S
C1446      H1456   1.082       .  S
C1457      C1458   1.405       .  A
C1457      C1462   1.402       .  A
C1458      C1459   1.400       .  A
C1458      H1471   1.083       .  S
C1459      C1460   1.405       .  A
C1459      H1472   1.083       .  S
C1460      C1461   1.410       .  A
C1460      C1463   1.493       .  S
C1461      C1462   1.400       .  A
C1461      H1473   1.081       .  S
C1462      H1474   1.079       .  S
C1463      C1464   1.348       .  D
C1463      H1475   1.085       .  S
C1464      C1465   1.492       .  S
C1464      H1476   1.085       .  S
C1465      C1466   1.402       .  A
C1465      C1470   1.410       .  A
C1466      C1467   1.396       .  A
C1466      H1477   1.083       .  S
C1467      C1468   1.406       .  A
C1467      H1478   1.083       .  S
C1468      C1469   1.408       .  A
C1469      C1470   1.405       .  A
C1469      H1479   1.083       .  S
C1470      H1480   1.081       .  S
C1481      C1482   1.411       .  A
C1481      C1486   1.411       .  A
C1482      C1483   1.398       .  A
C1482      H1495   1.082       .  S
C1483      C1484   1.400       .  A
C1483      H1496   1.083       .  S
C1484      C1485   1.403       .  A
C1484      C1487   1.481       .  S
C1485      C1486   1.401       .  A
C1485      H1497   1.083       .  S
C1486      H1498   1.082       .  S
C1487      C1488   1.343       .  D
C1487      H1499   1.087       .  S
C1488      C1489   1.481       .  S
C1488      H1500   1.086       .  S
C1489      C1490   1.402       .  A
C1489      C1494   1.405       .  A
C1490      C1491   1.401       .  A
C1490      H1501   1.083       .  S
C1491      C1492   1.401       .  A
C1491      H1502   1.079       .  S
C1492      C1493   1.404       .  A
C1493      C1494   1.399       .  A
C1493      H1503   1.083       .  S
C1494      H1504   1.083       .  S
C1505      C1506   1.405       .  A
C1505      C1510   1.407       .  A
C1506      C1507   1.400       .  A
C1506      H1519   1.083       .  S
C1507      C1508   1.405       .  A
C1507      H1520   1.083       .  S
C1508      C1509   1.409       .  A
C1508      C1511   1.494       .  S
C1509      C1510   1.403       .  A
C1509      H1521   1.081       .  S
C1510      H1522   1.083       .  S
C1511      C1512   1.351       .  D
C1511      H1523   1.084       .  S
C1512      C1513   1.497       .  S
C1512      H1524   1.085       .  S
C1513      C1514   1.407       .  A
C1513      C1518   1.410       .  A
C1514      C1515   1.402       .  A
C1514      H1525   1.083       .  S
C1515      C1516   1.405       .  A
C1515      H1526   1.083       .  S
C1516      C1517   1.403       .  A
C1517      C1518   1.401       .  A
C1517      H1527   1.081       .  S
C1518      H1528   1.081       .  S
C1529      C1530   1.417       .  A
C1529      C1534   1.419       .  A
C1530      C1531   1.399       .  A
C1530      H1543   1.078       .  S
C1531      C1532   1.399       .  A
C1531      H1544   1.083       .  S
C1532      C1533   1.403       .  A
C1532      C1535   1.492       .  S
C1533      C1534   1.403       .  A
C1533      H1545   1.082       .  S
C1534      H1546   1.077       .  S
C1535      C1536   1.351       .  D
C1535      H1547   1.084       .  S
C1536      C1537   1.496       .  S
C1536      H1548   1.085       .  S
C1537      C1538   1.406       .  A
C1537      C1542   1.409       .  A
C1538      C1539   1.403       .  A
C1538      H1549   1.083       .  S
C1539      C1540   1.406       .  A
C1539      H1550   1.083       .  S
C1540      C1541   1.406       .  A
C1541      C1542   1.400       .  A
C1541      H1551   1.083       .  S
C1542      H1552   1.080       .  S
