geometry optimzed in LAMMPS
_audit_creation_date              2020-11-30 
_audit_creation_method            'lammps2cif' 
_symmetry_space_group_name_H-M    'P1' 
_symmetry_Int_Tables_number       1 
_symmetry_cell_setting            triclinic 
loop_ 
_symmetry_equiv_pos_as_xyz 
  x,y,z 
_cell_length_a                    53.11960206 
_cell_length_b                    53.61139210403412 
_cell_length_c                    53.85883479399401 
_cell_angle_alpha                 89.88257834392027 
_cell_angle_beta                  90.9500349068026 
_cell_angle_gamma                 88.92444725787794 
loop_ 
_atom_site_label 
_atom_site_type_symbol 
_atom_site_fract_x 
_atom_site_fract_y 
_atom_site_fract_z 
_atom_site_charge 
O1          O  0.93849379  0.84549374  0.44825263    -0.57800
C2          C  0.99609489  0.85020186  0.41122552     0.74800
O3          O  0.96934529  0.80062169  0.47399115    -0.59000
C4          C  0.91730904  0.83678800  0.44196498     0.74800
C5          C  0.95058929  0.78729899  0.38378698     0.77200
Cd6        Cd  0.96385543  0.81198141  0.42967745     1.37500
O7          O  0.97385479  0.85539353  0.41778210    -0.57800
O8          O  0.96589898  0.80491382  0.38563544    -0.56600
C9          C  0.98987523  0.78856576  0.47201068     0.77100
O10         O  0.94271590  0.77862614  0.40412908    -0.59000
O11         O  0.00365484  0.82796999  0.41491191    -0.57500
O12         O  0.91763499  0.81565025  0.43146155    -0.57500
O13         O  0.99703415  0.78483979  0.45004731    -0.56600
O14         O  0.85750238  0.95660312  0.40003320    -0.57800
C15         C  0.83761391  0.90886073  0.43380126     0.74800
O16         O  0.80217468  0.96619574  0.45597915    -0.59000
C17         C  0.85672498  0.97994102  0.39688052     0.74800
C18         C  0.79242536  0.94010225  0.36528023     0.77200
Cd19       Cd  0.81387892  0.95314312  0.41350862     1.37500
O20         O  0.84486794  0.93057330  0.43915662    -0.57800
O21         O  0.80727480  0.95795405  0.36868010    -0.56600
C22         C  0.78643573  0.98317373  0.44990961     0.77100
O23         O  0.78514208  0.92925161  0.38480837    -0.59000
O24         O  0.81739178  0.90750663  0.42103223    -0.57500
O25         O  0.83662751  0.99111697  0.40311124    -0.57500
O26         O  0.78109342  0.98454499  0.42697521    -0.56600
O27         O  0.69297036  0.93927384  0.06010308    -0.57800
C28         C  0.68332133  0.99463750  0.09298188     0.74800
O29         O  0.73180105  0.96678097  0.12238606    -0.59000
C30         C  0.70362162  0.91834490  0.06437699     0.74800
C31         C  0.74585019  0.99521969  0.03700967     0.77200
Cd32       Cd  0.72555172  0.96518557  0.07722531     1.37500
O33         O  0.70578668  0.00153669  0.09610980    -0.57800
O34         O  0.73429725  0.97517567  0.03310074    -0.56600
C35         C  0.74906232  0.95032865  0.12402514     0.77100
O36         O  0.75134193  0.99952001  0.05951090    -0.59000
O37         O  0.68024799  0.97399061  0.08216119    -0.57500
O38         O  0.72616744  0.91886227  0.07247246    -0.57500
O39         O  0.75778868  0.94247855  0.10360019    -0.56600
O40         O  0.58880742  0.84920171  0.12954971    -0.57800
C41         C  0.63207405  0.84191113  0.07741451     0.74800
O42         O  0.62005395  0.78680925  0.12700885    -0.59000
C43         C  0.56665607  0.85580371  0.12328384     0.74800
C44         C  0.55875036  0.79030831  0.06390356     0.77200
Cd45       Cd  0.59204238  0.81464610  0.10010739     1.37500
O46         O  0.60961578  0.84995507  0.07852198    -0.57800
O47         O  0.55201846  0.79628740  0.08548629    -0.56600
C48         C  0.60608789  0.78869392  0.14580146     0.77100
O49         O  0.58191471  0.79302342  0.05959025    -0.59000
O50         O  0.63618460  0.82003176  0.08570725    -0.57500
O51         O  0.55716155  0.84476308  0.10470427    -0.57500
O52         O  0.58478010  0.79886647  0.14186970    -0.56600
C53         C  0.76912587  0.90069400  0.21997924     0.86500
C54         C  0.77095516  0.91643452  0.24402750    -0.53800
C55         C  0.77434543  0.90267832  0.26526940     0.09400
C56         C  0.77490467  0.87438782  0.26078116     0.20300
C57         C  0.79311998  0.88408451  0.22082093    -0.54500
C58         C  0.79583849  0.87005948  0.24184506     0.09500
C59         C  0.74753782  0.88271389  0.22500504    -0.54000
C60         C  0.75029004  0.86885529  0.24635767     0.10100
H61         H  0.76957765  0.93651630  0.24480519     0.14600
H62         H  0.77783848  0.86373209  0.27825733     0.00300
H63         H  0.80649937  0.88298854  0.20581406     0.14900
H64         H  0.73159805  0.88092392  0.21229765     0.14700
C65         C  0.90458349  0.77048905  0.28599045     0.86500
C66         C  0.88679304  0.79321875  0.28288583    -0.53800
C67         C  0.87390503  0.79466567  0.26069030     0.09400
C68         C  0.87960194  0.77209874  0.24366604     0.20300
C69         C  0.88742364  0.74810066  0.28162769    -0.54500
C70         C  0.87425049  0.74911466  0.25977977     0.09500
C71         C  0.92137190  0.77068023  0.26286175    -0.54000
C72         C  0.90842703  0.77144946  0.24060889     0.10100
H73         H  0.88383146  0.80618074  0.29801243     0.14600
H74         H  0.86915911  0.77214411  0.22567717     0.00300
H75         H  0.88505363  0.73269566  0.29431747     0.14900
H76         H  0.94178349  0.77005018  0.26411620     0.14700
C77         C  0.64314206  0.77300412  0.29324177     0.86500
C78         C  0.66145544  0.75075431  0.29050101    -0.53800
C79         C  0.67563993  0.75110797  0.26963872     0.09400
C80         C  0.67088573  0.77459353  0.25362650     0.20300
C81         C  0.66029119  0.79597857  0.29211578    -0.54500
C82         C  0.67484455  0.79652952  0.27145116     0.09500
C83         C  0.62802919  0.77430056  0.26851172    -0.54000
C84         C  0.64245851  0.77511067  0.24767533     0.10100
H85         H  0.66390685  0.73683490  0.30497250     0.14600
H86         H  0.68278411  0.77560780  0.23691933     0.00300
H87         H  0.66120262  0.81062737  0.30588361     0.14900
H88         H  0.60762064  0.77419405  0.26773926     0.14700
O89         O  0.53618469  0.69307120  0.41669819    -0.57800
C90         C  0.61657558  0.68710930  0.44069578     0.74800
O91         O  0.57065379  0.73394780  0.38298461    -0.59000
C92         C  0.54611647  0.67946197  0.40019496     0.74800
C93         C  0.54481726  0.73949114  0.46562656     0.77200
Cd94       Cd  0.57414063  0.71753506  0.42532928     1.37500
O95         O  0.59417226  0.67970233  0.44208840    -0.57800
O96         O  0.54034596  0.74491410  0.44307625    -0.56600
C97         C  0.58980276  0.74757094  0.38381589     0.77100
O98         O  0.56427597  0.72600066  0.46961803    -0.59000
O99         O  0.61919056  0.70987268  0.43506769    -0.57500
O100        O  0.56900639  0.68326303  0.39602363    -0.57500
O101        O  0.60003217  0.75027111  0.40507603    -0.56600
O102        O  0.68685902  0.59190320  0.42003138    -0.57800
C103        C  0.69418400  0.54725330  0.37876402     0.74800
O104        O  0.75815255  0.57911266  0.37214448    -0.59000
C105        C  0.69407460  0.61282194  0.42807853     0.74800
C106        C  0.74780403  0.54608409  0.44941035     0.77200
Cd107      Cd  0.72817908  0.57656796  0.40792007     1.37500
O108        O  0.68687584  0.55978205  0.39725097    -0.57800
O109        O  0.74662270  0.56959562  0.45111877    -0.56600
C110        C  0.75386773  0.60198892  0.36755886     0.77100
O111        O  0.74354792  0.53751683  0.42797913    -0.59000
O112        O  0.71741949  0.54792602  0.37416239    -0.57500
O113        O  0.71752559  0.61687052  0.42735588    -0.57500
O114        O  0.74110270  0.61346240  0.38363971    -0.56600
O115        O  0.96536973  0.68761666  0.11758063    -0.57800
C116        C  0.91848730  0.70373614  0.07657198     0.74800
O117        O  0.96829863  0.74066137  0.13993298    -0.59000
C118        C  0.98910128  0.68565091  0.11787904     0.74800
C119        C  0.99133175  0.75095146  0.05601535     0.77200
Cd120      Cd  0.96238149  0.72851377  0.09655235     1.37500
O121        O  0.94076311  0.69608478  0.07269053    -0.57800
O122        O  0.99805705  0.75306583  0.07856139    -0.56600
C123        C  0.94953590  0.75522918  0.14217183     0.77100
O124        O  0.97012133  0.74114593  0.05255409    -0.59000
O125        O  0.91634467  0.72405561  0.08847030    -0.57500
O126        O  0.00057592  0.70309275  0.10729667    -0.57500
O127        O  0.93779690  0.76066521  0.12209228    -0.56600
O128        O  0.84958163  0.60877745  0.06287536    -0.57800
C129        C  0.85134478  0.55013887  0.10047134     0.74800
O130        O  0.78325323  0.60784156  0.10777331    -0.59000
C131        C  0.84174546  0.63037818  0.06879518     0.74800
C132        C  0.78891083  0.56193887  0.03971402     0.77200
Cd133      Cd  0.81487272  0.58557311  0.08139506     1.37500
O134        O  0.83124390  0.54299384  0.09002374    -0.57800
O135        O  0.80750548  0.57599235  0.03697935    -0.56600
C136        C  0.79053102  0.59732815  0.12786583     0.77100
O137        O  0.78041267  0.56080698  0.06150454    -0.59000
O138        O  0.85534953  0.57328040  0.09996841    -0.57500
O139        O  0.82020982  0.63151916  0.07855748    -0.57500
O140        O  0.80694712  0.58016875  0.12573649    -0.56600
C141        C  0.77310494  0.64381741  0.22398081     0.86500
C142        C  0.77239334  0.62886050  0.24852754    -0.53800
C143        C  0.77389050  0.64320776  0.26958099     0.09400
C144        C  0.77586741  0.67135361  0.26396561     0.20300
C145        C  0.75127517  0.66304478  0.22649725    -0.54500
C146        C  0.75296916  0.67749759  0.24716692     0.09500
C147        C  0.79690522  0.65953579  0.22602117    -0.54000
C148        C  0.79870766  0.67385543  0.24687940     0.10100
H149        H  0.76969594  0.60885240  0.24905743     0.14600
H150        H  0.77679069  0.68300091  0.28094160     0.00300
H151        H  0.73532766  0.66520790  0.21389424     0.14900
H152        H  0.81035928  0.66029849  0.21110846     0.14700
O153        O  0.60589456  0.07124248  0.14774387    -0.57800
C154        C  0.57581477  0.12182858  0.16817317     0.74800
O155        O  0.58140283  0.04373452  0.22091270    -0.59000
C156        C  0.61097558  0.04820013  0.14947131     0.74800
C157        C  0.64389420  0.08937384  0.21131840     0.77200
Cd158      Cd  0.59469474  0.07678139  0.19127812     1.37500
O159        O  0.56943585  0.10044035  0.16062709    -0.57800
O160        O  0.64027420  0.07351305  0.19443967    -0.56600
C161        C  0.55808351  0.04885437  0.21967263     0.77100
O162        O  0.62420239  0.09849501  0.22113638    -0.59000
O163        O  0.58863520  0.12232886  0.18823687    -0.57500
O164        O  0.60586548  0.03777577  0.16980578    -0.57500
O165        O  0.55206673  0.06814926  0.20724649    -0.56600
O166        O  0.60619200  0.18847859  0.04688608    -0.57800
C167        C  0.57431069  0.20087867  0.09632010     0.74800
O168        O  0.61907331  0.25733638  0.08345285    -0.59000
C169        C  0.60926531  0.19206263  0.02399304     0.74800
C170        C  0.55069046  0.25719666  0.02869813     0.77200
Cd171      Cd  0.59112159  0.23089028  0.05591227     1.37500
O172        O  0.57162656  0.19455695  0.07381788    -0.57800
O173        O  0.54671053  0.24463129  0.04809291    -0.56600
C174        C  0.63891716  0.25208862  0.07160475     0.77100
O175        O  0.57358741  0.26075442  0.02406779    -0.59000
O176        O  0.58291544  0.22249189  0.10025278    -0.57500
O177        O  0.60217821  0.21318057  0.01567090    -0.57500
O178        O  0.63557556  0.24005700  0.05174414    -0.56600
C179        C  0.79165789  0.12169399  0.23494916     0.86500
C180        C  0.76680557  0.10799428  0.23057112    -0.53800
C181        C  0.74576250  0.12321563  0.23033526     0.09400
C182        C  0.75147087  0.15105775  0.23428189     0.20300
C183        C  0.79158161  0.14231837  0.21481829    -0.54500
C184        C  0.77060078  0.15745669  0.21434266     0.09500
C185        C  0.78731988  0.13641669  0.25910804    -0.54000
C186        C  0.76690271  0.15228591  0.25869521     0.10100
H187        H  0.76593331  0.08791807  0.22819198     0.14600
H188        H  0.73454009  0.16353038  0.23376177     0.00300
H189        H  0.80682829  0.14620737  0.20257922     0.14900
H190        H  0.79940353  0.13402442  0.27534548     0.14700
O191        O  0.89847076  0.16852571  0.42498541    -0.57800
C192        C  0.94034719  0.18288577  0.37835720     0.74800
O193        O  0.88972424  0.23635924  0.39426298    -0.59000
C194        C  0.90025312  0.16787388  0.44836197     0.74800
C195        C  0.95649786  0.23438648  0.45008741     0.77200
Cd196      Cd  0.91905333  0.20831595  0.41997579     1.37500
O197        O  0.94259905  0.17450100  0.40028039    -0.57800
O198        O  0.93311658  0.23793836  0.45312217    -0.56600
C199        C  0.87016299  0.22970160  0.40562064     0.77100
O200        O  0.96229560  0.22155095  0.43130816    -0.59000
O201        O  0.93012966  0.20434367  0.37583391    -0.57500
O202        O  0.91300285  0.18489247  0.45849938    -0.57500
O203        O  0.87412762  0.21620757  0.42452362    -0.56600
O204        O  0.95572685  0.08421907  0.31770075    -0.57800
C205        C  0.91807529  0.03123136  0.32881384     0.74800
O206        O  0.90708167  0.07841896  0.25271449    -0.59000
C207        C  0.95030411  0.10510987  0.30783312     0.74800
C208        C  0.97457483  0.02839930  0.26564694     0.77200
Cd209      Cd  0.93433404  0.05887334  0.28654106     1.37500
O210        O  0.92089310  0.05456581  0.32951969    -0.57800
O211        O  0.97889554  0.04785170  0.27811017    -0.56600
C212        C  0.88655513  0.07100156  0.26170900     0.77100
O213        O  0.95174426  0.02506290  0.25976473    -0.59000
O214        O  0.92357538  0.02056126  0.30864476    -0.57500
O215        O  0.93977631  0.10459541  0.28652953    -0.57500
O216        O  0.88874781  0.05660379  0.28021567    -0.56600
C217        C  0.72194103  0.25023708  0.36691894     0.86500
C218        C  0.72474051  0.27280716  0.34956241    -0.53800
C219        C  0.74515195  0.27150175  0.33470064     0.09400
C220        C  0.76178645  0.24834750  0.33893953     0.20300
C221        C  0.72365868  0.22698315  0.35019375    -0.54500
C222        C  0.74415323  0.22610948  0.33501233     0.09500
C223        C  0.74739207  0.24931377  0.38152690    -0.54000
C224        C  0.76827805  0.24827589  0.36689225     0.10100
H225        H  0.71172882  0.28868623  0.34917388     0.14600
H226        H  0.77842087  0.24836403  0.32688944     0.00300
H227        H  0.71029701  0.21203765  0.35137716     0.14900
H228        H  0.74945779  0.24934412  0.40150481     0.14700
O229        O  0.58408638  0.43956305  0.33432130    -0.57800
C230        C  0.62438007  0.48868822  0.32111053     0.74800
O231        O  0.62338238  0.44160334  0.25665732    -0.59000
C232        C  0.57901188  0.41749851  0.32783469     0.74800
C233        C  0.55210558  0.48265822  0.27215174     0.77200
Cd234      Cd  0.59537371  0.45399589  0.29302484     1.37500
O235        O  0.60603388  0.47763155  0.33059071    -0.57800
O236        O  0.54999334  0.46021880  0.27909262    -0.56600
C237        C  0.63700759  0.42658479  0.26957570     0.77100
O238        O  0.57441590  0.49040190  0.27163392    -0.59000
O239        O  0.62820944  0.48454246  0.29837642    -0.57500
O240        O  0.57919078  0.41299377  0.30467565    -0.57500
O241        O  0.62989373  0.42325602  0.29151594    -0.56600
O242        O  0.57579742  0.34611467  0.42520475    -0.57800
C243        C  0.61946147  0.33991383  0.47237799     0.74800
O244        O  0.57165252  0.28673018  0.48030785    -0.59000
C245        C  0.57851890  0.34000564  0.40269473     0.74800
C246        C  0.63040201  0.27510977  0.42157860     0.77200
Cd247      Cd  0.59071474  0.30611752  0.44298003     1.37500
O248        O  0.60134618  0.34764458  0.45869644    -0.57800
O249        O  0.63313033  0.28706487  0.44158069    -0.56600
C250        C  0.54907236  0.28722464  0.47265059     0.77100
O251        O  0.60821872  0.27507721  0.41244731    -0.59000
O252        O  0.62312150  0.31656716  0.47319300    -0.57500
O253        O  0.58515303  0.31754229  0.39886211    -0.57500
O254        O  0.54591363  0.29381594  0.45023963    -0.56600
C255        C  0.78829270  0.26097584  0.10999246     0.86500
C256        C  0.78565840  0.28226238  0.12888855    -0.53800
C257        C  0.76502467  0.28103644  0.14354957     0.09400
C258        C  0.74820572  0.25865886  0.13784492     0.20300
C259        C  0.78633860  0.23678549  0.12506633    -0.54500
C260        C  0.76614165  0.23587235  0.14031858     0.09500
C261        C  0.76297912  0.26238155  0.09533733    -0.54000
C262        C  0.74192642  0.26066245  0.10971812     0.10100
H263        H  0.79929669  0.29700937  0.13084021     0.14600
H264        H  0.73162820  0.25755571  0.15005798     0.00300
H265        H  0.80014769  0.22165731  0.12432409     0.14900
H266        H  0.76129679  0.26481063  0.07549197     0.14700
O267        O  0.94422460  0.42543243  0.16267932    -0.57800
C268        C  0.90627178  0.47938174  0.16180178     0.74800
O269        O  0.89811093  0.42593982  0.23306296    -0.59000
C270        C  0.94121171  0.40292033  0.16882779     0.74800
C271        C  0.96589233  0.46939369  0.22382537     0.77200
Cd272      Cd  0.92404302  0.44464182  0.19873302     1.37500
O273        O  0.90488565  0.45609357  0.15873754    -0.57800
O274        O  0.94332755  0.47696171  0.22591764    -0.56600
C275        C  0.87721280  0.43361081  0.22379107     0.77100
O276        O  0.96867424  0.44879669  0.21272137    -0.59000
O277        O  0.91692691  0.48649339  0.18168885    -0.57500
O278        O  0.93160456  0.39942554  0.18994395    -0.57500
O279        O  0.87865826  0.44675107  0.20446484    -0.56600
O280        O  0.94808488  0.34228023  0.06736896    -0.57800
C281        C  0.90078176  0.35197710  0.02542720     0.74800
O282        O  0.96867016  0.29060314  0.03687717    -0.59000
C283        C  0.94634760  0.33298208  0.08887846     0.74800
C284        C  0.88312758  0.27926774  0.05910795     0.77200
Cd285      Cd  0.92611581  0.30862716  0.04570382     1.37500
O286        O  0.91734875  0.34027710  0.01315251    -0.57800
O287        O  0.90438127  0.27610391  0.06981259    -0.56600
C288        C  0.96489743  0.28728959  0.01388821     0.77100
O289        O  0.88294490  0.29280131  0.03988188    -0.59000
O290        O  0.89700519  0.34412351  0.04712310    -0.57500
O291        O  0.93788635  0.31107920  0.09001519    -0.57500
O292        O  0.94257425  0.29148155  0.00621986    -0.56600
C293        C  0.78214548  0.38694918  0.24497333     0.86500
C294        C  0.75612211  0.39985524  0.24818890    -0.53800
C295        C  0.73608259  0.38400807  0.24771262     0.09400
C296        C  0.74409169  0.35643812  0.24409846     0.20300
C297        C  0.78319813  0.36671689  0.26549601    -0.54500
C298        C  0.76318170  0.35118010  0.26539223     0.09500
C299        C  0.77973159  0.37141417  0.22114231    -0.54000
C300        C  0.75999479  0.35557824  0.22053554     0.10100
H301        H  0.75378733  0.41968889  0.25160971     0.14600
H302        H  0.72829550  0.34327393  0.24307498     0.00300
H303        H  0.79884907  0.36327779  0.27805067     0.14900
H304        H  0.79371651  0.37154990  0.20663930     0.14700
O305        O  0.96287577  0.42929259  0.82844460    -0.57800
C306        C  0.90644633  0.45789167  0.82186026     0.74800
O307        O  0.97771597  0.46531506  0.76199075    -0.59000
C308        C  0.98248423  0.41926127  0.81951334     0.74800
C309        C  0.92709297  0.40167069  0.76148197     0.77200
Cd310      Cd  0.94610370  0.44448425  0.78813500     1.37500
O311        O  0.92959474  0.45943711  0.82746932    -0.57800
O312        O  0.91646221  0.42291600  0.75856432    -0.56600
C313        C  0.97163582  0.48735863  0.76793039     0.77100
O314        O  0.94715123  0.40129783  0.77428387    -0.59000
O315        O  0.90145560  0.45116681  0.79975830    -0.57500
O316        O  0.98592757  0.42278644  0.79663039    -0.57500
O317        O  0.95139538  0.48966794  0.77972610    -0.56600
O318        O  0.84349173  0.43472773  0.95424175    -0.57800
C319        C  0.83035409  0.45885440  0.89743781     0.74800
O320        O  0.76471198  0.42057327  0.91871434    -0.59000
C321        C  0.83703878  0.42289838  0.97337216     0.74800
C322        C  0.77823879  0.48601221  0.96651689     0.77200
Cd323      Cd  0.80050211  0.44428368  0.93935073     1.37500
O324        O  0.83704324  0.46268167  0.91975332    -0.57800
O325        O  0.78649758  0.48860055  0.94478866    -0.56600
C326        C  0.77500915  0.39937235  0.92301119     0.77100
O327        O  0.77701417  0.46378331  0.97414070    -0.59000
O328        O  0.80863317  0.44982959  0.89426638    -0.57500
O329        O  0.81368251  0.42261083  0.97759967    -0.57500
O330        O  0.79558064  0.39975655  0.93500349    -0.56600
O331        O  0.91576217  0.08918477  0.67009353    -0.57800
C332        C  0.96447690  0.13101584  0.66559449     0.74800
O333        O  0.93560449  0.15675524  0.71461998    -0.59000
C334        C  0.89279787  0.09170053  0.67548203     0.74800
C335        C  0.96050917  0.07304431  0.73228830     0.77200
Cd336      Cd  0.93306821  0.11249975  0.70493876     1.37500
O337        O  0.94068737  0.13187128  0.66437766    -0.57800
O338        O  0.93968391  0.06912993  0.72142063    -0.56600
C339        C  0.91693342  0.15919237  0.72863628     0.77100
O340        O  0.96702600  0.09559987  0.73301745    -0.59000
O341        O  0.97400301  0.12052990  0.68472297    -0.57500
O342        O  0.88825626  0.10265428  0.69582861    -0.57500
O343        O  0.90612812  0.13906507  0.73416685    -0.56600
O344        O  0.84268026  0.10966263  0.53623311    -0.57800
C345        C  0.82277850  0.08684198  0.59463965     0.74800
O346        O  0.79866132  0.14785405  0.55037256    -0.59000
C347        C  0.83751905  0.11373607  0.51357980     0.74800
C348        C  0.77693577  0.05977173  0.52275894     0.77200
Cd349      Cd  0.79963839  0.10160888  0.54817397     1.37500
O350        O  0.83378081  0.08490696  0.57406221    -0.57800
O351        O  0.79112194  0.05701348  0.54167433    -0.56600
C352        C  0.77725141  0.15015098  0.56006072     0.77100
O353        O  0.77014355  0.08200825  0.51772030    -0.59000
O354        O  0.79991627  0.09410528  0.59375722    -0.57500
O355        O  0.81480409  0.11105708  0.50681288    -0.57500
O356        O  0.76540441  0.13000447  0.56267609    -0.56600
C357        C  0.87805086  0.30617268  0.74733843     0.86500
C358        C  0.89349832  0.28140602  0.74847975    -0.53800
C359        C  0.87918230  0.26028238  0.74764997     0.09400
C360        C  0.85060516  0.26613941  0.74702578     0.20300
C361        C  0.86130647  0.30336462  0.72405512    -0.54500
C362        C  0.84646010  0.28274150  0.72375792     0.09500
C363        C  0.86031716  0.30420047  0.76933457    -0.54000
C364        C  0.84606569  0.28340611  0.76926640     0.10100
H365        H  0.91379018  0.28024657  0.74979524     0.14600
H366        H  0.83862248  0.24955030  0.74789379     0.00300
H367        H  0.86163601  0.31679032  0.70897480     0.14900
H368        H  0.85888626  0.31835580  0.78368144     0.14700
C369        C  0.74976925  0.30377140  0.87771876     0.86500
C370        C  0.77118915  0.30178267  0.85907433    -0.53800
C371        C  0.77096996  0.28097151  0.84468361     0.09400
C372        C  0.74926160  0.26350175  0.85034582     0.20300
C373        C  0.72547945  0.30086305  0.86195243    -0.54500
C374        C  0.72542282  0.28014602  0.84711894     0.09500
C375        C  0.75138555  0.27924993  0.89265765    -0.54000
C376        C  0.75141727  0.25794074  0.87853513     0.10100
H377        H  0.78524400  0.31609808  0.85708282     0.14600
H378        H  0.74919845  0.24671899  0.83849023     0.00300
H379        H  0.70935117  0.31342532  0.86276740     0.14900
H380        H  0.75233198  0.27893492  0.91278613     0.14700
C381        C  0.75115748  0.24327663  0.61098991     0.86500
C382        C  0.77371630  0.24580919  0.62911695    -0.53800
C383        C  0.77194635  0.26549609  0.64515968     0.09400
C384        C  0.74738656  0.28080073  0.64186659     0.20300
C385        C  0.72822435  0.24241869  0.62832343    -0.54500
C386        C  0.72627481  0.26192703  0.64434146     0.09500
C387        C  0.74873417  0.26903299  0.59817129    -0.54000
C388        C  0.74704886  0.28879776  0.61432601     0.10100
H389        H  0.78979209  0.23298456  0.62919481     0.14600
H390        H  0.74514125  0.29618772  0.65530674     0.00300
H391        H  0.71512757  0.22735381  0.62955450     0.14900
H392        H  0.74840460  0.27131698  0.57814069     0.14700
O393        O  0.52643005  0.42036801  0.68898182    -0.57800
C394        C  0.60892753  0.45021043  0.67313844     0.74800
O395        O  0.54555424  0.45259706  0.73693152    -0.59000
C396        C  0.53275708  0.41210932  0.66801881     0.74800
C397        C  0.58907607  0.38433525  0.72537516     0.77200
Cd398      Cd  0.56950757  0.43091457  0.70301077     1.37500
O399        O  0.58686002  0.44628139  0.66493290    -0.57800
O400        O  0.60260870  0.39960950  0.71405135    -0.56600
C401        C  0.54621777  0.47406664  0.72712582     0.77100
O402        O  0.56687785  0.39194065  0.72964944    -0.59000
O403        O  0.61278243  0.44640952  0.69623013    -0.57500
O404        O  0.55590346  0.41306087  0.66332333    -0.57500
O405        O  0.56022989  0.47588702  0.70855044    -0.56600
O406        O  0.67352765  0.42735592  0.53726477    -0.57800
C407        C  0.68129606  0.45675683  0.59581502     0.74800
O408        O  0.74456469  0.40045190  0.56263033    -0.59000
C409        C  0.68237695  0.40850723  0.52598260     0.74800
C410        C  0.73715888  0.47407342  0.52700665     0.77200
Cd411      Cd  0.71352500  0.43675607  0.55817500     1.37500
O412        O  0.67319737  0.45130789  0.57429751    -0.57800
O413        O  0.74238065  0.47352062  0.55009590    -0.56600
C414        C  0.73486602  0.39227452  0.58234788     0.77100
O415        O  0.72226541  0.45772569  0.51927615    -0.59000
O416        O  0.70503214  0.45591356  0.59902349    -0.57500
O417        O  0.70562520  0.40371501  0.52905215    -0.57500
O418        O  0.71861511  0.40649175  0.59198684    -0.56600
O419        O  0.68078898  0.14169567  0.94070940    -0.57800
C420        C  0.68646580  0.09291627  0.89536104     0.74800
O421        O  0.73621317  0.15355532  0.94216038    -0.59000
C422        C  0.67555359  0.13471565  0.96235991     0.74800
C423        C  0.74115009  0.07278539  0.96252431     0.77200
Cd424      Cd  0.71651283  0.11323115  0.93479096     1.37500
O425        O  0.67923396  0.09426268  0.91757488    -0.57800
O426        O  0.73221584  0.06983326  0.94085269    -0.56600
C427        C  0.74190513  0.15806360  0.91994250     0.77100
O428        O  0.74218690  0.09515210  0.96988612    -0.59000
O429        O  0.70865867  0.10004345  0.89123379    -0.57500
O430        O  0.68927866  0.11726001  0.97131477    -0.57500
O431        O  0.74021742  0.13984554  0.90509049    -0.56600
O432        O  0.58523770  0.08156838  0.83380509    -0.57800
C433        C  0.52842679  0.11713529  0.83627174     0.74800
O434        O  0.58004419  0.12063558  0.76442384    -0.59000
C435        C  0.60660335  0.08377647  0.82405889     0.74800
C436        C  0.53174985  0.05429647  0.78018044     0.77200
Cd437      Cd  0.56005086  0.09673774  0.79878742     1.37500
O438        O  0.52008395  0.11237492  0.81470648    -0.57800
O439        O  0.55136915  0.05167470  0.79359111    -0.56600
C440        C  0.57263095  0.14189688  0.77207003     0.77100
O441        O  0.52700201  0.07627022  0.77261891    -0.59000
O442        O  0.55118775  0.11115556  0.84078585    -0.57500
O443        O  0.60659299  0.09004621  0.80132882    -0.57500
O444        O  0.55806710  0.14166020  0.79033836    -0.56600
C445        C  0.61971419  0.23575004  0.74583543     0.86500
C446        C  0.60587624  0.26137991  0.74406239    -0.53800
C447        C  0.62170145  0.28136539  0.74390546     0.09400
C448        C  0.64986568  0.27376722  0.74517965     0.20300
C449        C  0.63770130  0.23616833  0.72352666    -0.54500
C450        C  0.65361983  0.25583809  0.72332601     0.09500
C451        C  0.63687402  0.23785523  0.76886418    -0.54000
C452        C  0.65289566  0.25741495  0.76866141     0.10100
H453        H  0.58557093  0.26347557  0.74220744     0.14600
H454        H  0.66261491  0.28989434  0.74459528     0.00300
H455        H  0.63766751  0.22283070  0.70848097     0.14900
H456        H  0.63552838  0.22515568  0.78446913     0.14700
O457        O  0.08049898  0.18855740  0.56183611    -0.57800
C458        C  0.02422777  0.18881677  0.59871225     0.74800
O459        O  0.08022597  0.25882051  0.59710970    -0.59000
C460        C  0.10192104  0.19846495  0.56320801     0.74800
C461        C  0.02774746  0.24264063  0.53136295     0.77200
Cd462      Cd  0.05599929  0.22495833  0.57560323     1.37500
O463        O  0.04731985  0.18430461  0.59498114    -0.57800
O464        O  0.02314159  0.25090055  0.55283538    -0.56600
C465        C  0.07187213  0.25419587  0.61854307     0.77100
O466        O  0.04716675  0.22876524  0.52996629    -0.59000
O467        O  0.01569510  0.20956117  0.59072248    -0.57500
O468        O  0.10210768  0.22142758  0.56878867    -0.57500
O469        O  0.05440285  0.23860591  0.61934280    -0.56600
O470        O  0.16800772  0.08376136  0.61771492    -0.57800
C471        C  0.18279689  0.12758091  0.57394206     0.74800
O472        O  0.23872103  0.10946830  0.62143807    -0.59000
C473        C  0.16512333  0.06046489  0.61664189     0.74800
C474        C  0.23243445  0.05342596  0.55695825     0.77200
Cd475      Cd  0.20825007  0.08432103  0.59534292     1.37500
O476        O  0.17598749  0.10546822  0.56964147    -0.57800
O477        O  0.22291368  0.07477163  0.55238262    -0.56600
C478        C  0.23569543  0.09660857  0.64094559     0.77100
O479        O  0.23339914  0.04742047  0.57967084    -0.59000
O480        O  0.20300633  0.12980959  0.58655929    -0.57500
O481        O  0.18141637  0.04831436  0.60450753    -0.57500
O482        O  0.22298450  0.07715642  0.63805732    -0.56600
C483        C  0.25482249  0.13957878  0.78513378     0.86500
C484        C  0.27696364  0.15739261  0.78361282    -0.53800
C485        C  0.27807083  0.17063843  0.76211705     0.09400
C486        C  0.25615513  0.16536125  0.74393215     0.20300
C487        C  0.23124766  0.15597075  0.78007235    -0.54500
C488        C  0.23199401  0.16998317  0.75886664     0.09500
C489        C  0.25689533  0.12342028  0.76135800    -0.54000
C490        C  0.25722554  0.13686159  0.73950125     0.10100
H491        H  0.28978867  0.16029849  0.79916170     0.14600
H492        H  0.25683251  0.17704456  0.72710705     0.00300
H493        H  0.21547034  0.15668788  0.79262382     0.14900
H494        H  0.25722621  0.10326018  0.76142607     0.14700
O495        O  0.42578147  0.19581807  0.93875763    -0.57800
C496        C  0.47232493  0.18579919  0.89623824     0.74800
O497        O  0.41775906  0.25776581  0.88794944    -0.59000
C498        C  0.40308417  0.20271025  0.93543715     0.74800
C499        C  0.47404971  0.25436593  0.95324864     0.77200
Cd500      Cd  0.44486120  0.22869237  0.91462012     1.37500
O501        O  0.44864022  0.18780476  0.89435950    -0.57800
O502        O  0.45261201  0.24543003  0.95710400    -0.56600
C503        C  0.42987501  0.25351602  0.86825118     0.77100
O504        O  0.48083975  0.25405182  0.93084780    -0.59000
O505        O  0.48326662  0.20326076  0.90760249    -0.57500
O506        O  0.39960498  0.22319487  0.92392854    -0.57500
O507        O  0.44984280  0.24063988  0.87110369    -0.56600
O508        O  0.33020846  0.07567733  0.89398498    -0.57800
C509        C  0.32774909  0.12856192  0.94243659     0.74800
O510        O  0.27159655  0.11132394  0.90302316    -0.59000
C511        C  0.34252387  0.05814615  0.90442043     0.74800
C512        C  0.28056783  0.05302305  0.96685862     0.77200
Cd513      Cd  0.30137130  0.08429815  0.92763866     1.37500
O514        O  0.33782412  0.10699813  0.94247536    -0.57800
O515        O  0.28960432  0.07424323  0.97126982    -0.56600
C516        C  0.27090569  0.09703167  0.88427379     0.77100
O517        O  0.27805462  0.04778022  0.94407246    -0.59000
O518        O  0.30431582  0.12973355  0.93761549    -0.57500
O519        O  0.33637057  0.05305816  0.92643012    -0.57500
O520        O  0.28079032  0.07559549  0.88739388    -0.56600
C521        C  0.38049470  0.27189025  0.72460338     0.86500
C522        C  0.39719554  0.27190701  0.74843582    -0.53800
C523        C  0.38409781  0.27121372  0.77021261     0.09400
C524        C  0.35521618  0.27082577  0.76585455     0.20300
C525        C  0.36417458  0.24887072  0.72739522    -0.54500
C526        C  0.35058705  0.24851981  0.74849678     0.09500
C527        C  0.36239023  0.29417584  0.72815237    -0.54000
C528        C  0.34880981  0.29416370  0.74964054     0.10100
H529        H  0.41751349  0.27242197  0.74852686     0.14600
H530        H  0.34505742  0.26882419  0.78332275     0.00300
H531        H  0.36268473  0.23444089  0.71333807     0.14900
H532        H  0.36006237  0.30816563  0.71372465     0.14700
O533        O  0.33483484  0.46927314  0.60614318    -0.57800
C534        C  0.31954481  0.41861555  0.57446715     0.74800
O535        O  0.26379934  0.43485992  0.62274769    -0.59000
C536        C  0.33063097  0.49191316  0.61150768     0.74800
C537        C  0.26740952  0.48733875  0.55387197     0.77200
Cd538      Cd  0.29162031  0.45999481  0.59446201     1.37500
O539        O  0.32695113  0.44089620  0.57355297    -0.57800
O540        O  0.27795556  0.46629235  0.55086281    -0.56600
C541        C  0.27219076  0.44513693  0.64237023     0.77100
O542        O  0.26398989  0.49365412  0.57619430    -0.59000
O543        O  0.29824156  0.41530294  0.58418536    -0.57500
O544        O  0.30842891  0.50015742  0.60765771    -0.57500
O545        O  0.28675284  0.46300689  0.63898084    -0.56600
O546        O  0.41859144  0.35287961  0.56416406    -0.57800
C547        C  0.46804362  0.35508918  0.60440047     0.74800
O548        O  0.44352876  0.30221471  0.62626170    -0.59000
C549        C  0.39642836  0.34461523  0.56389403     0.74800
C550        C  0.46901194  0.29291365  0.54380033     0.77200
Cd551      Cd  0.43887149  0.31603287  0.58283005     1.37500
O552        O  0.47793034  0.33800173  0.59143660    -0.57800
O553        O  0.44792872  0.30340475  0.53924179    -0.56600
C554        C  0.42402932  0.28920782  0.62717548     0.77100
O555        O  0.47449685  0.29025785  0.56660788    -0.59000
O556        O  0.44437915  0.35471530  0.60639058    -0.57500
O557        O  0.39411751  0.32198208  0.57023553    -0.57500
O558        O  0.41244431  0.28609569  0.60666782    -0.56600
C559        C  0.12524429  0.27218386  0.71237075     0.86500
C560        C  0.11147418  0.27222932  0.73767506    -0.53800
C561        C  0.12750328  0.27284380  0.75802590     0.09400
C562        C  0.15546693  0.27331480  0.75112413     0.20300
C563        C  0.14173192  0.29545550  0.71379628    -0.54500
C564        C  0.15759827  0.29585553  0.73383333     0.09500
C565        C  0.14362994  0.24966971  0.71465059    -0.54000
C566        C  0.15941217  0.24997667  0.73495889     0.10100
H567        H  0.09124709  0.27256200  0.73971825     0.14600
H568        H  0.16873271  0.27456074  0.76712899     0.00300
H569        H  0.14099027  0.31031294  0.70004394     0.14900
H570        H  0.14330311  0.23428918  0.70157649     0.14700
O571        O  0.08628562  0.34617864  0.92290544    -0.57800
C572        C  0.04086505  0.34779640  0.87769392     0.74800
O573        O  0.07226203  0.27989442  0.86595492    -0.59000
C574        C  0.10788475  0.33723579  0.92837975     0.74800
C575        C  0.03929284  0.28349020  0.93815084     0.77200
Cd576      Cd  0.07010351  0.30911294  0.90248516     1.37500
O577        O  0.04629316  0.34929324  0.90056244    -0.57800
O578        O  0.03109710  0.28993104  0.91691561    -0.56600
C579        C  0.09399224  0.28652977  0.85951297     0.77100
O580        O  0.06276961  0.28547473  0.94171076    -0.59000
O581        O  0.04847216  0.32829264  0.86681800    -0.57500
O582        O  0.11193817  0.31457813  0.92265091    -0.57500
O583        O  0.10541333  0.30039456  0.87474045    -0.56600
O584        O  0.16957914  0.43414825  0.94875702    -0.57800
C585        C  0.16286085  0.49056842  0.91266865     0.74800
O586        O  0.23450027  0.48855607  0.94624799    -0.59000
C587        C  0.17956817  0.41288852  0.94508253     0.74800
C588        C  0.22557528  0.44756954  0.88267207     0.77200
Cd589      Cd  0.20281079  0.45845488  0.92997901     1.37500
O590        O  0.16086348  0.46714142  0.91288216    -0.57800
O591        O  0.20584306  0.46075288  0.88495581    -0.56600
C592        C  0.22856719  0.48626182  0.96878874     0.77100
O593        O  0.23619181  0.44031011  0.90279051    -0.59000
O594        O  0.18269892  0.49914491  0.92247435    -0.57500
O595        O  0.20194935  0.41276850  0.93723066    -0.57500
O596        O  0.21282124  0.46951032  0.97332697    -0.56600
C597        C  0.24863395  0.40424214  0.78599460     0.86500
C598        C  0.22573832  0.38751130  0.78091054    -0.53800
C599        C  0.22705845  0.37389210  0.75951123     0.09400
C600        C  0.25128316  0.37798144  0.74508490     0.20300
C601        C  0.27124765  0.38559658  0.78517125    -0.54500
C602        C  0.27251295  0.37212878  0.76385202     0.09500
C603        C  0.25149932  0.41994500  0.76220574    -0.54000
C604        C  0.25232662  0.40623751  0.74080064     0.10100
H605        H  0.21041211  0.38572065  0.79385370     0.14600
H606        H  0.25272989  0.36680411  0.72781077     0.00300
H607        H  0.28524613  0.38236775  0.79963342     0.14900
H608        H  0.25346759  0.44004293  0.76225439     0.14700
O609        O  0.17788081  0.58097929  0.08862634    -0.57800
C610        C  0.17636480  0.62248549  0.03326009     0.74800
O611        O  0.24763679  0.63166220  0.08192260    -0.59000
C612        C  0.18709263  0.58059158  0.11044068     0.74800
C613        C  0.23608923  0.56317075  0.04147503     0.77200
Cd614      Cd  0.21204008  0.60308255  0.06927591     1.37500
O615        O  0.19971386  0.62139066  0.02918492    -0.57800
O616        O  0.22462671  0.55935394  0.06148722    -0.56600
C617        C  0.23282978  0.64863437  0.08981772     0.77100
O618        O  0.23977232  0.58581196  0.03623255    -0.59000
O619        O  0.16944896  0.61371000  0.05376909    -0.57500
O620        O  0.20909759  0.58919594  0.11308018    -0.57500
O621        O  0.20964360  0.64408466  0.08836152    -0.56600
O622        O  0.06467426  0.60714757  0.17591177    -0.57800
C623        C  0.11573781  0.57035450  0.18773936     0.74800
O624        O  0.09719281  0.60740635  0.24776306    -0.59000
C625        C  0.04134468  0.61121411  0.17831857     0.74800
C626        C  0.04326420  0.54235959  0.23283408     0.77200
Cd627      Cd  0.07169337  0.58480504  0.21497494     1.37500
O628        O  0.09358915  0.56850021  0.17901689    -0.57800
O629        O  0.05885956  0.54083337  0.21544276    -0.56600
C630        C  0.08663269  0.62835841  0.24288792     0.77100
O631        O  0.04282885  0.56292296  0.24436334    -0.59000
O632        O  0.11767317  0.57656116  0.21040771    -0.57500
O633        O  0.03144538  0.60146573  0.19714242    -0.57500
O634        O  0.06782354  0.62783975  0.22828775    -0.56600
C635        C  0.13573425  0.72344655  0.26196819     0.86500
C636        C  0.15196958  0.72698261  0.23884914    -0.53800
C637        C  0.16447797  0.74899002  0.23808704     0.09400
C638        C  0.16059090  0.76510328  0.26125414     0.20300
C639        C  0.15463608  0.72627209  0.28384972    -0.54500
C640        C  0.16760560  0.74798180  0.28323601     0.09500
C641        C  0.11898897  0.74730997  0.26343776    -0.54000
C642        C  0.13205779  0.76906608  0.26270604     0.10100
H643        H  0.15427756  0.71243136  0.22511120     0.14600
H644        H  0.17111082  0.78280145  0.26142711     0.00300
H645        H  0.15789318  0.71291845  0.29869078     0.14900
H646        H  0.09864975  0.74698353  0.26506507     0.14700
O647        O  0.18370619  0.94861036  0.42929302    -0.57800
C648        C  0.18188192  0.91578766  0.49028034     0.74800
O649        O  0.21997693  0.88796182  0.45076849    -0.59000
C650        C  0.19514986  0.94728353  0.40891500     0.74800
C651        C  0.23748574  0.97629359  0.48252168     0.77200
Cd652      Cd  0.21833876  0.93297572  0.45575894     1.37500
O653        O  0.17620564  0.92032103  0.46782297    -0.57800
O654        O  0.22322468  0.97799060  0.46354440    -0.56600
C655        C  0.24216038  0.88525618  0.44309099     0.77100
O656        O  0.24594736  0.95452540  0.48738584    -0.59000
O657        O  0.20419469  0.92068999  0.49695563    -0.57500
O658        O  0.21831739  0.94111892  0.41022848    -0.57500
O659        O  0.25489638  0.90508798  0.44233406    -0.56600
O660        O  0.10589466  0.94661032  0.33093318    -0.57800
C661        C  0.05704045  0.90599978  0.34525458     0.74800
O662        O  0.04837104  0.93191205  0.27484800    -0.59000
C663        C  0.12819857  0.94019717  0.32563473     0.74800
C664        C  0.09624223  0.86972089  0.28277807     0.77200
Cd665      Cd  0.08467338  0.91929483  0.30190301     1.37500
O666        O  0.08076019  0.90508029  0.34458693    -0.57800
O667        O  0.08259700  0.87423782  0.30119668    -0.56600
C668        C  0.05378255  0.95473573  0.27329346     0.77100
O669        O  0.10398101  0.88876478  0.27128119    -0.59000
O670        O  0.04587823  0.91514870  0.32628527    -0.57500
O671        O  0.13069380  0.92624150  0.30680027    -0.57500
O672        O  0.07510598  0.96046935  0.28215242    -0.56600
C673        C  0.26410403  0.79033020  0.39414031     0.86500
C674        C  0.26341856  0.76502000  0.40782416    -0.53800
C675        C  0.26298855  0.74462592  0.39247394     0.09400
C676        C  0.26412419  0.75159693  0.36470704     0.20300
C677        C  0.28740362  0.78810975  0.37751502    -0.54500
C678        C  0.28731437  0.76801433  0.36201653     0.09500
C679        C  0.24189064  0.78987384  0.37535514    -0.54000
C680        C  0.24156087  0.76953000  0.36012894     0.10100
H681        H  0.26356929  0.76357679  0.42791918     0.14600
H682        H  0.26423822  0.73524336  0.35217702     0.00300
H683        H  0.30189913  0.80189965  0.37605159     0.14900
H684        H  0.22823922  0.80512010  0.37376780     0.14700
O685        O  0.42604309  0.58032610  0.33912245    -0.57800
C686        C  0.48238203  0.61681901  0.34046143     0.74800
O687        O  0.45718464  0.55481570  0.29382598    -0.59000
C688        C  0.40365467  0.58301859  0.33102511     0.74800
C689        C  0.43261066  0.64840581  0.28338610     0.77200
Cd690      Cd  0.44708336  0.59941940  0.30390847     1.37500
O691        O  0.46017264  0.61120881  0.34603968    -0.57800
O692        O  0.42407847  0.62870411  0.27346529    -0.56600
C693        C  0.47449135  0.55874396  0.27855372     0.77100
O694        O  0.44815181  0.64486085  0.30101313    -0.59000
O695        O  0.48869912  0.61241823  0.31832777    -0.57500
O696        O  0.40114843  0.59189121  0.30921916    -0.57500
O697        O  0.47705479  0.58135858  0.27248011    -0.56600
O698        O  0.33400315  0.58342585  0.42586450    -0.57800
C699        C  0.33331189  0.62691890  0.47105449     0.74800
O700        O  0.27025014  0.62270192  0.41368680    -0.59000
C701        C  0.32573965  0.58349430  0.40367738     0.74800
C702        C  0.27321360  0.56067483  0.47609375     0.77200
Cd703      Cd  0.29536480  0.59926841  0.44515693     1.37500
O704        O  0.31485048  0.63693605  0.45967190    -0.57800
O705        O  0.27892504  0.55655322  0.45375625    -0.56600
C706        C  0.26707622  0.64185743  0.42713777     0.77100
O707        O  0.27498621  0.58305837  0.48304623    -0.59000
O708        O  0.33440263  0.60329275  0.47086995    -0.57500
O709        O  0.30258793  0.58904977  0.40065438    -0.57500
O710        O  0.27153512  0.63903148  0.45012365    -0.56600
C711        C  0.25828331  0.79263821  0.12989194     0.86500
C712        C  0.25581901  0.76799607  0.11483827    -0.53800
C713        C  0.25527065  0.74685815  0.12945062     0.09400
C714        C  0.25796816  0.75239552  0.15746269     0.20300
C715        C  0.23631735  0.79171174  0.14800953    -0.54500
C716        C  0.23654138  0.77120181  0.16275523     0.09500
C717        C  0.28215166  0.78836070  0.14591164    -0.54000
C718        C  0.28231977  0.76726560  0.16015248     0.10100
H719        H  0.25345637  0.76705460  0.09485558     0.14600
H720        H  0.25779944  0.73551248  0.16940435     0.00300
H721        H  0.22191688  0.80628635  0.14935921     0.14900
H722        H  0.29723468  0.80174140  0.14661850     0.14700
O723        O  0.34157951  0.95163750  0.08666162    -0.57800
C724        C  0.34569180  0.90573657  0.04746828     0.74800
O725        O  0.27502543  0.90955069  0.09678761    -0.59000
C726        C  0.33496122  0.95135509  0.10912983     0.74800
C727        C  0.28203804  0.97256704  0.03855782     0.77200
Cd728      Cd  0.30424977  0.93213752  0.06926122     1.37500
O729        O  0.33255517  0.92151066  0.03512855    -0.57800
O730        O  0.28350315  0.95026959  0.03101097    -0.56600
C731        C  0.27450965  0.88986150  0.08376562     0.77100
O732        O  0.28840368  0.97576922  0.06106685    -0.59000
O733        O  0.33970237  0.90251987  0.06980176    -0.57500
O734        O  0.31269455  0.94433649  0.11306358    -0.57500
O735        O  0.28427512  0.89144540  0.06261917    -0.56600
O736        O  0.49898247  0.91340086  0.20444125    -0.57800
C737        C  0.41564845  0.95063960  0.18123481     0.74800
O738        O  0.43714411  0.90804290  0.24470705    -0.59000
C739        C  0.49741273  0.91430849  0.18097998     0.74800
C740        C  0.48493198  0.97382271  0.23344322     0.77200
Cd741      Cd  0.45763529  0.93299966  0.21139643     1.37500
O742        O  0.43747082  0.94656144  0.17297535    -0.57800
O743        O  0.46530639  0.97734811  0.22019821    -0.56600
C744        C  0.43795567  0.88773542  0.23259284     0.77100
O745        O  0.48944222  0.95150748  0.24005580    -0.59000
O746        O  0.41317664  0.94781868  0.20448102    -0.57500
O747        O  0.47765111  0.92449174  0.17189454    -0.57500
O748        O  0.44820257  0.88878306  0.21166519    -0.56600
C749        C  0.38933878  0.79373839  0.25798414     0.86500
C750        C  0.37218133  0.78884684  0.23542765    -0.53800
C751        C  0.35835984  0.76768195  0.23678551     0.09400
C752        C  0.36290778  0.75304598  0.26114352     0.20300
C753        C  0.37145883  0.79316657  0.28023354    -0.54500
C754        C  0.35752657  0.77215580  0.28168454     0.09500
C755        C  0.40537650  0.76957775  0.26115008    -0.54000
C756        C  0.39164307  0.74814557  0.26251701     0.10100
H757        H  0.37064878  0.80168094  0.21980856     0.14600
H758        H  0.35162444  0.73597706  0.26290807     0.00300
H759        H  0.36951501  0.80755540  0.29412805     0.14900
H760        H  0.42581049  0.76948284  0.26195977     0.14700
O761        O  0.40610559  0.99453896  0.82417939    -0.57800
C762        C  0.43862608  0.91122377  0.84248613     0.74800
O763        O  0.39033538  0.92862044  0.78200944    -0.59000
C764        C  0.40183097  0.99000543  0.84675969     0.74800
C765        C  0.45714749  0.97836627  0.78654036     0.77200
Cd766      Cd  0.41823132  0.95196547  0.81282383     1.37500
O767        O  0.43988342  0.93384466  0.84887520    -0.57800
O768        O  0.46232627  0.96122074  0.80204452    -0.56600
C769        C  0.36996999  0.93552620  0.79222752     0.77100
O770        O  0.43416139  0.98063098  0.78023958    -0.59000
O771        O  0.42915469  0.90718299  0.82110680    -0.57500
O772        O  0.40595599  0.96779504  0.85390805    -0.57500
O773        O  0.37248245  0.95016472  0.81038246    -0.56600
O774        O  0.41853516  0.84690024  0.97314736    -0.57800
C775        C  0.44845031  0.83631770  0.91876294     0.74800
O776        O  0.45964837  0.77691999  0.99064575    -0.59000
C777        C  0.41421738  0.84135573  0.99548235     0.74800
C778        C  0.39278630  0.78008924  0.94421151     0.77200
Cd779      Cd  0.43682930  0.80668322  0.96168896     1.37500
O780        O  0.44925279  0.84479457  0.94068933    -0.57800
O781        O  0.39257491  0.79352649  0.96342638    -0.56600
C782        C  0.48106542  0.78657968  0.98846893     0.77100
O783        O  0.41416932  0.77633971  0.93458215    -0.59000
O784        O  0.44430841  0.81318456  0.91664645    -0.57500
O785        O  0.42158081  0.81989670  0.00253282    -0.57500
O786        O  0.48253184  0.80305694  0.97180623    -0.56600
O787        O  0.07734343  0.69851054  0.92055244    -0.57800
C788        C  0.11873264  0.68705945  0.96898583     0.74800
O789        O  0.12861688  0.76138064  0.92079007    -0.59000
C790        C  0.07852744  0.70826554  0.89921377     0.74800
C791        C  0.06329005  0.75328148  0.97647275     0.77200
Cd792      Cd  0.10031520  0.73045567  0.94295441     1.37500
O793        O  0.11889437  0.68826019  0.94557650    -0.57800
O794        O  0.08673134  0.75611540  0.97963985    -0.56600
C795        C  0.14877673  0.75129710  0.92942784     0.77100
O796        O  0.05698658  0.74322419  0.95611676    -0.59000
O797        O  0.10864006  0.70531293  0.98013466    -0.57500
O798        O  0.08768110  0.72993240  0.89819180    -0.57500
O799        O  0.14580313  0.73465349  0.94565226    -0.56600
O800        O  0.06654242  0.61055326  0.83662988    -0.57800
C801        C  0.10429552  0.55462485  0.84831668     0.74800
O802        O  0.07204394  0.55280564  0.77798532    -0.59000
C803        C  0.07231393  0.63145231  0.82763873     0.74800
C804        C  0.13773761  0.59268489  0.78387214     0.77200
Cd805      Cd  0.08914675  0.58477461  0.80673111     1.37500
O806        O  0.10248402  0.57807420  0.84969635    -0.57800
O807        O  0.13546550  0.58286198  0.80501070    -0.56600
C808        C  0.04910165  0.55885739  0.78046230     0.77100
O809        O  0.11721868  0.59821066  0.77258779    -0.59000
O810        O  0.09696321  0.54491419  0.82811810    -0.57500
O811        O  0.08410047  0.63090470  0.80733556    -0.57500
O812        O  0.04491609  0.57815267  0.79332151    -0.56600
C813        C  0.29636508  0.76535645  0.89228575     0.86500
C814        C  0.27144852  0.76499449  0.90679835    -0.53800
C815        C  0.25016696  0.76470955  0.89197927     0.09400
C816        C  0.25577515  0.76546013  0.86395299     0.20300
C817        C  0.29424984  0.74272145  0.87503040    -0.54500
C818        C  0.27367173  0.74295525  0.85951700     0.09500
C819        C  0.29286482  0.78859228  0.87578885    -0.54000
C820        C  0.27210127  0.78873679  0.86039371     0.10100
H821        H  0.27012340  0.76497444  0.92680020     0.14600
H822        H  0.23864777  0.76511846  0.85199562     0.00300
H823        H  0.30756592  0.72715624  0.87591875     0.14900
H824        H  0.30548308  0.80415214  0.87750139     0.14700
C825        C  0.22293817  0.90054547  0.76595968     0.86500
C826        C  0.22617765  0.88379902  0.74301399    -0.53800
C827        C  0.24751933  0.86933504  0.74330643     0.09400
C828        C  0.26376995  0.87238094  0.76682570     0.20300
C829        C  0.22468389  0.88209514  0.78812383    -0.54500
C830        C  0.24592236  0.86712299  0.78841546     0.09500
C831        C  0.24769278  0.91511446  0.76830846    -0.54000
C832        C  0.26907942  0.90038531  0.76876421     0.10100
H833        H  0.21210844  0.88281846  0.72820551     0.14600
H834        H  0.28105613  0.86042316  0.76674276     0.00300
H835        H  0.21125319  0.88138360  0.80293134     0.14900
H836        H  0.24819124  0.93526857  0.77012973     0.14700
C837        C  0.23467204  0.63389191  0.76030077     0.86500
C838        C  0.23610444  0.65070717  0.78340541    -0.53800
C839        C  0.25563683  0.66684496  0.78396620     0.09400
C840        C  0.27271342  0.66415693  0.76122282     0.20300
C841        C  0.23538359  0.65202709  0.73807003    -0.54500
C842        C  0.25457189  0.66844173  0.73892926     0.09500
C843        C  0.26054151  0.62051705  0.75950153    -0.54000
C844        C  0.28092617  0.63609003  0.76028136     0.10100
H845        H  0.22262823  0.64949724  0.79824348     0.14600
H846        H  0.28836650  0.67746293  0.76141984     0.00300
H847        H  0.22306227  0.65143020  0.72202382     0.14900
H848        H  0.26211835  0.60048539  0.75724270     0.14700
O849        O  0.41161851  0.53755218  0.68924710    -0.57800
C850        C  0.44309764  0.61671888  0.68149766     0.74800
O851        O  0.38410485  0.57377938  0.73447971    -0.59000
C852        C  0.39892466  0.54812173  0.67203858     0.74800
C853        C  0.46748991  0.54830643  0.73124254     0.77200
Cd854      Cd  0.42413978  0.57646818  0.71029977     1.37500
O855        O  0.44105887  0.59481881  0.67295555    -0.57800
O856        O  0.46960674  0.56715454  0.71738956    -0.56600
C857        C  0.38168479  0.59694036  0.73853365     0.77100
O858        O  0.44530931  0.54401557  0.73813708    -0.59000
O859        O  0.43840379  0.61955844  0.70435403    -0.57500
O860        O  0.39853248  0.57165837  0.67227151    -0.57500
O861        O  0.40030904  0.60989801  0.73261468    -0.56600
O862        O  0.43739243  0.68318899  0.58353649    -0.57800
C863        C  0.39997221  0.68816912  0.52931888     0.74800
O864        O  0.37865602  0.73253747  0.56351101    -0.59000
C865        C  0.43887007  0.69114956  0.60558607     0.74800
C866        C  0.46736623  0.74156853  0.53857376     0.77200
Cd867      Cd  0.42345029  0.72172783  0.56372547     1.37500
O868        O  0.40140358  0.71130885  0.52496307    -0.57800
O869        O  0.44555850  0.75078099  0.53458803    -0.56600
C870        C  0.37883237  0.74860535  0.58056606     0.77100
O871        O  0.46889529  0.72543803  0.55561211    -0.59000
O872        O  0.41084707  0.68038085  0.54897885    -0.57500
O873        O  0.43327264  0.71405093  0.60870533    -0.57500
O874        O  0.40041283  0.75413594  0.58921144    -0.56600
O875        O  0.09231291  0.98419659  0.67474959    -0.57800
C876        C  0.06591418  0.92720195  0.69149428     0.74800
O877        O  0.12713618  0.96813082  0.72359511    -0.59000
C878        C  0.10046700  0.00545949  0.68059741     0.74800
C879        C  0.03754645  0.99760381  0.73800841     0.77200
Cd880      Cd  0.08133536  0.97147257  0.71723236     1.37500
O881        O  0.06470971  0.94868769  0.68170566    -0.57800
O882        O  0.03560987  0.97884520  0.72403920    -0.56600
C883        C  0.12786672  0.95398219  0.74236126     0.77100
O884        O  0.05979034  0.00270643  0.74484617    -0.59000
O885        O  0.07313922  0.92620942  0.71403185    -0.57500
O886        O  0.09853090  0.01146081  0.70321959    -0.57500
O887        O  0.10660408  0.94903755  0.75142393    -0.56600
O888        O  0.07651792  0.85772584  0.59973727    -0.57800
C889        C  0.12084290  0.85787655  0.55577174     0.74800
O890        O  0.13561927  0.79509163  0.58073670    -0.59000
C891        C  0.07213997  0.84934055  0.62119920     0.74800
C892        C  0.05876618  0.79376006  0.55376453     0.77200
Cd893      Cd  0.09597031  0.81980620  0.58364582     1.37500
O894        O  0.12835214  0.85110356  0.57714341    -0.57800
O895        O  0.05336086  0.80376503  0.57425092    -0.56600
C896        C  0.13876371  0.79239882  0.60391158     0.77100
O897        O  0.08191769  0.79323067  0.54865586    -0.59000
O898        O  0.10101732  0.84773546  0.54768766    -0.57500
O899        O  0.07759067  0.82652768  0.62508814    -0.57500
O900        O  0.12035036  0.79878312  0.61721187    -0.56600
C901        C  0.28707550  0.77245469  0.63402621     0.86500
C902        C  0.26083832  0.77403248  0.62147017    -0.53800
C903        C  0.24126210  0.77331177  0.63771725     0.09400
C904        C  0.24987171  0.77177372  0.66519909     0.20300
C905        C  0.28671415  0.79446943  0.65265150    -0.54500
C906        C  0.26730101  0.79392562  0.66892194     0.09500
C907        C  0.28631446  0.74895683  0.65033548    -0.54000
C908        C  0.26733925  0.74858531  0.66712295     0.10100
H909        H  0.25809834  0.77615854  0.60155635     0.14600
H910        H  0.23412444  0.77202833  0.67842678     0.00300
H911        H  0.29992839  0.80955799  0.65319710     0.14900
H912        H  0.29967077  0.73363173  0.64805521     0.14700
C913        C  0.17913206  0.76806390  0.60137646    -0.26300
C914        C  0.16349385  0.78444551  0.61473185    -0.14400
C915        C  0.17330074  0.79592104  0.63641182     0.36200
C916        C  0.19837344  0.79149879  0.64366067    -0.25800
C917        C  0.21426228  0.77577798  0.62993316    -0.15000
C918        C  0.20429603  0.76327527  0.60897121     0.37300
N919        N  0.21968868  0.74580069  0.59550363    -0.89300
H920        H  0.17177948  0.75924261  0.58475935     0.18400
H921        H  0.20574946  0.80136400  0.65966019     0.18400
N922        N  0.15880705  0.81336880  0.65067834    -0.88300
H923        H  0.20952542  0.73821462  0.58065247     0.35800
H924        H  0.22435426  0.73100944  0.60752548     0.40900
H925        H  0.14320771  0.80429969  0.65770640     0.40500
H926        H  0.15269069  0.82803602  0.63910493     0.35400
C927        C  0.04933132  0.90773217  0.65292030    -0.26300
C928        C  0.06078754  0.90465923  0.67645964    -0.14400
C929        C  0.07030694  0.88084459  0.68340438     0.36200
C930        C  0.07153812  0.86177248  0.66560211    -0.25800
C931        C  0.06321289  0.86610188  0.64107565    -0.15000
C932        C  0.05016569  0.88855084  0.63524621     0.37300
N933        N  0.03874644  0.89211928  0.61108111    -0.89300
H934        H  0.04090755  0.92560885  0.64778234     0.18400
H935        H  0.08090956  0.84427268  0.67049920     0.18400
N936        N  0.08017732  0.87633389  0.70794233    -0.88300
H937        H  0.02994709  0.90968882  0.60977990     0.35800
H938        H  0.02452040  0.87899928  0.60914474     0.40900
H939        H  0.09904395  0.87069121  0.70654890     0.40500
H940        H  0.07028826  0.86158300  0.71562239     0.35400
C941        C  0.33099971  0.78516909  0.61890093    -0.26300
C942        C  0.30935821  0.77036775  0.61612191    -0.14400
C943        C  0.31030390  0.75063747  0.59867463     0.36200
C944        C  0.33262086  0.74520470  0.58603526    -0.25800
C945        C  0.35471920  0.75854344  0.59067254    -0.15000
C946        C  0.35350621  0.77930852  0.60655000     0.37300
N947        N  0.37522161  0.79427389  0.61065512    -0.89300
H948        H  0.33151976  0.80060559  0.63162301     0.18400
H949        H  0.33296376  0.72930348  0.57364503     0.18400
N950        N  0.28902240  0.73498055  0.59479041    -0.88300
H951        H  0.37955558  0.79404458  0.62966068     0.35800
H952        H  0.37050916  0.81263304  0.60558013     0.40900
H953        H  0.29446481  0.71663326  0.59919894     0.40500
H954        H  0.28402734  0.73563718  0.57593893     0.35400
C955        C  0.45763888  0.63242208  0.64099958    -0.26300
C956        C  0.44855058  0.63786223  0.66472438    -0.14400
C957        C  0.44086828  0.66264068  0.67018735     0.36200
C958        C  0.43923113  0.68042448  0.65086892    -0.25800
C959        C  0.44566211  0.67403235  0.62646069    -0.15000
C960        C  0.45646005  0.65024207  0.62197530     0.37300
N961        N  0.46567220  0.64379468  0.59792631    -0.89300
H962        H  0.46450179  0.61377387  0.63674152     0.18400
H963        H  0.43164939  0.69890425  0.65464910     0.18400
N964        N  0.43331581  0.66929707  0.69484189    -0.88300
H965        H  0.45590261  0.62826306  0.59153121     0.35800
H966        H  0.48470293  0.63868507  0.59987202     0.40900
H967        H  0.42734539  0.68802456  0.69546396     0.40500
H968        H  0.44926650  0.66780812  0.70635799     0.35400
C969        C  0.28111032  0.69416466  0.71169614    -0.26300
C970        C  0.25713196  0.68897631  0.72045059    -0.14400
C971        C  0.23656871  0.70449260  0.71253545     0.36200
C972        C  0.24024843  0.72302135  0.69468927    -0.25800
C973        C  0.26433400  0.72812307  0.68576973    -0.15000
C974        C  0.28520012  0.71420360  0.69556494     0.37300
N975        N  0.31057709  0.72098571  0.69010842    -0.89300
H976        H  0.29696870  0.68285289  0.71783189     0.18400
H977        H  0.22393812  0.73357154  0.68803500     0.18400
N978        N  0.21214357  0.70325384  0.72336247    -0.88300
H979        H  0.32363518  0.70888797  0.69891678     0.35800
H980        H  0.31347764  0.73866876  0.69758364     0.40900
H981        H  0.21416199  0.70383969  0.74273237     0.40500
H982        H  0.20339243  0.68687732  0.71806710     0.35400
C983        C  0.32625127  0.64223533  0.74779787    -0.26300
C984        C  0.30804779  0.62687044  0.75839583    -0.14400
C985        C  0.31611223  0.60267880  0.76623460     0.36200
C986        C  0.34036800  0.59348400  0.76032807    -0.25800
C987        C  0.35770554  0.60832050  0.74792943    -0.15000
C988        C  0.35071592  0.63332925  0.74256767     0.37300
N989        N  0.36800382  0.64961807  0.73081729    -0.89300
H990        H  0.32162728  0.66119202  0.74274433     0.18400
H991        H  0.34561385  0.57451299  0.76546000     0.18400
N992        N  0.30017966  0.58754399  0.78095402    -0.88300
H993        H  0.37051043  0.66512013  0.74228185     0.35800
H994        H  0.35984349  0.65584311  0.71406656     0.40900
H995        H  0.30954846  0.58370081  0.79779631     0.40500
H996        H  0.29758770  0.57063872  0.77169933     0.35400
C997        C  0.25555727  0.82531805  0.73099869    -0.26300
C998        C  0.25310734  0.85047038  0.72395887    -0.14400
C999        C  0.25615127  0.85707307  0.69876091     0.36200
C1000       C  0.26125548  0.83847034  0.68121121    -0.25800
C1001       C  0.26304295  0.81325496  0.68816726    -0.15000
C1002       C  0.26025210  0.80667749  0.71329599     0.37300
N1003       N  0.26264600  0.78113220  0.72096356    -0.89300
H1004       H  0.25346595  0.82007605  0.75029767     0.18400
H1005       H  0.26340761  0.84369250  0.66192279     0.18400
N1006       N  0.25485279  0.88251469  0.69058181    -0.88300
H1007       H  0.24592436  0.77616855  0.72950534     0.35800
H1008       H  0.27723517  0.77970320  0.73418384     0.40900
H1009       H  0.26774597  0.89274740  0.70107700     0.40500
H1010       H  0.23676384  0.88969618  0.69364855     0.35400
C1011       C  0.17413254  0.94700951  0.73771157    -0.26300
C1012       C  0.15242673  0.94299663  0.75164665    -0.14400
C1013       C  0.15450032  0.92696619  0.77241384     0.36200
C1014       C  0.17755325  0.91442658  0.77799255    -0.25800
C1015       C  0.19897912  0.91720668  0.76301425    -0.15000
C1016       C  0.19696433  0.93429460  0.74295733     0.37300
N1017       N  0.21789451  0.93802885  0.72700126    -0.89300
H1018       H  0.17322412  0.95932083  0.72172940     0.18400
H1019       H  0.17780736  0.90177963  0.79355752     0.18400
N1020       N  0.13313013  0.92280517  0.78763760    -0.88300
H1021       H  0.22213033  0.95698931  0.72719429     0.35800
H1022       H  0.21241019  0.93327147  0.70890965     0.40900
H1023       H  0.13789190  0.92783342  0.80584002     0.40500
H1024       H  0.12946183  0.90371110  0.78748927     0.35400
C1025       C  0.24027248  0.81415802  0.83558462    -0.26300
C1026       C  0.26562124  0.80956054  0.84249163    -0.14400
C1027       C  0.28420899  0.82453801  0.83156075     0.36200
C1028       C  0.27708339  0.84386399  0.81517361    -0.25800
C1029       C  0.25189536  0.84788591  0.80782704    -0.15000
C1030       C  0.23336892  0.83255098  0.81799970     0.37300
N1031       N  0.20762801  0.83475369  0.80983394    -0.89300
H1032       H  0.22546022  0.80332177  0.84351163     0.18400
H1033       H  0.29165580  0.85547029  0.80775884     0.18400
N1034       N  0.31050453  0.81969371  0.83594527    -0.88300
H1035       H  0.19657524  0.83839859  0.82534303     0.35800
H1036       H  0.20228787  0.81759065  0.80243796     0.40900
H1037       H  0.31890380  0.81595700  0.81890120     0.40500
H1038       H  0.31845721  0.83586230  0.84325003     0.35400
C1039       C  0.24445480  0.71599013  0.83472282    -0.26300
C1040       C  0.26916954  0.72320743  0.84033386    -0.14400
C1041       C  0.28919461  0.71188082  0.82712902     0.36200
C1042       C  0.28419019  0.69284044  0.80998267    -0.25800
C1043       C  0.25951708  0.68595638  0.80392163    -0.15000
C1044       C  0.23930194  0.69820263  0.81616889     0.37300
N1045       N  0.21360711  0.69324880  0.80933246    -0.89300
H1046       H  0.22893432  0.72444488  0.84463840     0.18400
H1047       H  0.29987021  0.68361118  0.80101035     0.18400
N1048       N  0.31453636  0.72032321  0.83035839    -0.88300
H1049       H  0.20110886  0.70368213  0.82025597     0.35800
H1050       H  0.21075049  0.69929094  0.79107713     0.40900
H1051       H  0.31495164  0.73867770  0.82386210     0.40500
H1052       H  0.32703082  0.70995428  0.81943696     0.35400
C1053       C  0.18469175  0.59222268  0.78854993    -0.26300
C1054       C  0.16316163  0.59834201  0.77400156    -0.14400
C1055       C  0.16660560  0.61130672  0.75145750     0.36200
C1056       C  0.19041240  0.62022585  0.74559881    -0.25800
C1057       C  0.21141073  0.61710453  0.76188338    -0.15000
C1058       C  0.20857704  0.60124219  0.78263764     0.37300
N1059       N  0.22967375  0.59549540  0.79870157    -0.89300
H1060       H  0.18288735  0.58140082  0.80541973     0.18400
H1061       H  0.19134552  0.63092602  0.72875870     0.18400
N1062       N  0.14623648  0.61663989  0.73438924    -0.88300
H1063       H  0.23204918  0.57609860  0.79934326     0.35800
H1064       H  0.22542427  0.60168279  0.81657071     0.40900
H1065       H  0.13304682  0.62834343  0.74302069     0.40500
H1066       H  0.13784322  0.59991276  0.72936232     0.35400
C1067       C  0.19396644  0.73909827  0.92611360    -0.26300
C1068       C  0.17467231  0.75667031  0.92045731    -0.14400
C1069       C  0.18042284  0.77710478  0.90506564     0.36200
C1070       C  0.20518257  0.77971976  0.89620139    -0.25800
C1071       C  0.22431350  0.76203809  0.90206813    -0.15000
C1072       C  0.21823716  0.74123950  0.91679924     0.37300
N1073       N  0.23582554  0.72107768  0.92135146    -0.89300
H1074       H  0.18999256  0.72277986  0.93718240     0.18400
H1075       H  0.20943936  0.79561527  0.88468078     0.18400
N1076       N  0.16130625  0.79513855  0.89828122    -0.88300
H1077       H  0.25100895  0.72747943  0.93192166     0.35800
H1078       H  0.24236562  0.71454518  0.90431011     0.40900
H1079       H  0.15975592  0.79552136  0.87890164     0.40500
H1080       H  0.16727823  0.81265731  0.90418628     0.35400
C1081       C  0.05337354  0.67509885  0.87933702    -0.26300
C1082       C  0.07142092  0.69370089  0.87690385    -0.14400
C1083       C  0.08591296  0.69444292  0.85514909     0.36200
C1084       C  0.08382832  0.67508700  0.83763253    -0.25800
C1085       C  0.06787978  0.65490708  0.84162399    -0.15000
C1086       C  0.05145949  0.65577457  0.86194121     0.37300
N1087       N  0.03362347  0.63645657  0.86566136    -0.89300
H1088       H  0.04182888  0.67458576  0.89573365     0.18400
H1089       H  0.09634564  0.67468758  0.82195373     0.18400
N1090       N  0.10443123  0.71336319  0.85206992    -0.88300
H1091       H  0.01566225  0.64473492  0.86622007     0.35800
H1092       H  0.03745003  0.62820086  0.88295735     0.40900
H1093       H  0.09477137  0.73038616  0.84968163     0.40500
H1094       H  0.11455227  0.71034679  0.83582792     0.35400
C1095       C  0.36807352  0.76904657  0.90652932    -0.26300
C1096       C  0.36897529  0.77151950  0.93233298    -0.14400
C1097       C  0.34646711  0.76923459  0.94565263     0.36200
C1098       C  0.32335102  0.76635255  0.93270059    -0.25800
C1099       C  0.32198734  0.76554833  0.90648649    -0.15000
C1100       C  0.34533424  0.76601741  0.89354018     0.37300
N1101       N  0.34708999  0.76366510  0.86711118    -0.89300
H1102       H  0.38522739  0.77055219  0.89603734     0.18400
H1103       H  0.30656203  0.76526348  0.94352421     0.18400
N1104       N  0.34709117  0.77015153  0.97232919    -0.88300
H1105       H  0.33606321  0.77714673  0.85805817     0.35800
H1106       H  0.34177983  0.74578362  0.86175615     0.40900
H1107       H  0.35765335  0.75464617  0.97864787     0.40500
H1108       H  0.32904059  0.76831239  0.97940545     0.35400
C1109       C  0.32416152  0.93234576  0.80048651    -0.26300
C1110       C  0.34432998  0.92686287  0.78461338    -0.14400
C1111       C  0.33944481  0.91274139  0.76290642     0.36200
C1112       C  0.31474174  0.90431922  0.75792247    -0.25800
C1113       C  0.29478163  0.91010487  0.77387463    -0.15000
C1114       C  0.29975772  0.92399199  0.79545078     0.37300
N1115       N  0.28023565  0.92875956  0.81294657    -0.89300
H1116       H  0.32735774  0.94276886  0.81742647     0.18400
H1117       H  0.31097175  0.89335732  0.74143821     0.18400
N1118       N  0.35940196  0.90693524  0.74606546    -0.88300
H1119       H  0.27842202  0.94806092  0.81525254     0.35800
H1120       H  0.28590629  0.92094864  0.82999639     0.40900
H1121       H  0.36513966  0.92372204  0.73826115     0.40500
H1122       H  0.35274834  0.89603586  0.73135745     0.35400
C1123       C  0.43815931  0.86634515  0.85518197    -0.26300
C1124       C  0.44615507  0.89075253  0.85993111    -0.14400
C1125       C  0.45836926  0.89576875  0.88285017     0.36200
C1126       C  0.46062128  0.87706693  0.90102049    -0.25800
C1127       C  0.45071871  0.85328473  0.89709050    -0.15000
C1128       C  0.44010190  0.84769331  0.87357998     0.37300
N1129       N  0.42975444  0.82367037  0.86877337    -0.89300
H1130       H  0.42883884  0.86205547  0.83770115     0.18400
H1131       H  0.46914440  0.88164011  0.91881945     0.18400
N1132       N  0.46773335  0.92009052  0.88824154    -0.88300
H1133       H  0.43871211  0.81612240  0.85329330     0.35800
H1134       H  0.41063844  0.82613941  0.86426896     0.40900
H1135       H  0.48696637  0.91831603  0.89244798     0.40500
H1136       H  0.45866537  0.92683155  0.90403164     0.35400
C1137       C  0.43276305  0.84183863  0.22836841    -0.26300
C1138       C  0.42730815  0.86385307  0.24153255    -0.14400
C1139       C  0.41061716  0.86271620  0.26157702     0.36200
C1140       C  0.39929990  0.83991175  0.26745572    -0.25800
C1141       C  0.40430245  0.81778231  0.25395643    -0.15000
C1142       C  0.42151059  0.81914671  0.23424240     0.37300
N1143       N  0.42702516  0.79760520  0.21944169    -0.89300
H1144       H  0.44550272  0.84224036  0.21286936     0.18400
H1145       H  0.38587222  0.84028066  0.28214875     0.18400
N1146       N  0.40430974  0.88487067  0.27532436    -0.88300
H1147       H  0.44645378  0.79412546  0.22039127     0.35800
H1148       H  0.42209023  0.80172684  0.20099375     0.40900
H1149       H  0.42040211  0.88993942  0.28538631     0.40500
H1150       H  0.39055236  0.88124694  0.28845069     0.35400
C1151       C  0.37314410  0.86780538  0.04666208    -0.26300
C1152       C  0.36629516  0.89105216  0.03629206    -0.14400
C1153       C  0.37812834  0.89909013  0.01462187     0.36200
C1154       C  0.39497624  0.88303844  0.00258326    -0.25800
C1155       C  0.40017847  0.85884388  0.01164173    -0.15000
C1156       C  0.38973181  0.85155362  0.03455346     0.37300
N1157       N  0.39459641  0.82754480  0.04553318    -0.89300
H1158       H  0.36449600  0.86157944  0.06362076     0.18400
H1159       H  0.40328141  0.88932228  0.98548016     0.18400
N1160       N  0.37293030  0.92345168  0.00460688    -0.88300
H1161       H  0.41397100  0.82529216  0.04859476     0.35800
H1162       H  0.38821047  0.81376116  0.03336913     0.40900
H1163       H  0.36597138  0.92141052  0.98646938     0.40500
H1164       H  0.38991343  0.93294885  0.00379927     0.35400
C1165       C  0.37720979  0.96546770  0.12273956    -0.26300
C1166       C  0.35336092  0.95706163  0.12938898    -0.14400
C1167       C  0.34913376  0.95092157  0.15452369     0.36200
C1168       C  0.36951246  0.95079952  0.17166443    -0.25800
C1169       C  0.39399657  0.95653557  0.16421411    -0.15000
C1170       C  0.39743870  0.96516752  0.13963039     0.37300
N1171       N  0.42127749  0.97334214  0.13094104    -0.89300
H1172       H  0.38068558  0.97096733  0.10374476     0.18400
H1173       H  0.36650473  0.94471990  0.19056192     0.18400
N1174       N  0.32462883  0.94351387  0.16233150    -0.88300
H1175       H  0.43385444  0.95821171  0.13030288     0.35800
H1176       H  0.42817882  0.98687792  0.14315135     0.40900
H1177       H  0.31253015  0.95907155  0.16041125     0.40500
H1178       H  0.32494747  0.93884322  0.18115835     0.35400
C1179       C  0.34661802  0.76577191  0.19193714    -0.26300
C1180       C  0.34003972  0.76123580  0.21667772    -0.14400
C1181       C  0.31531565  0.75375171  0.22167804     0.36200
C1182       C  0.29728374  0.75313129  0.20228372    -0.25800
C1183       C  0.30309202  0.76123840  0.17827922    -0.15000
C1184       C  0.32842078  0.76605671  0.17282426     0.37300
N1185       N  0.33573813  0.77155660  0.14795303    -0.89300
H1186       H  0.36581893  0.77040215  0.18755336     0.18400
H1187       H  0.27827797  0.74792486  0.20649044     0.18400
N1188       N  0.30787876  0.74845758  0.24653652    -0.88300
H1189       H  0.34937008  0.75834296  0.14276134     0.35800
H1190       H  0.34408200  0.78907517  0.14794386     0.40900
H1191       H  0.30090480  0.73035215  0.24693294     0.40500
H1192       H  0.29322699  0.76078495  0.25113793     0.35400
C1193       C  0.26217649  0.86359213  0.11942546    -0.26300
C1194       C  0.26555172  0.86564413  0.09377949    -0.14400
C1195       C  0.26447205  0.84370276  0.07916370     0.36200
C1196       C  0.26110479  0.82029051  0.09068343    -0.25800
C1197       C  0.25912619  0.81808794  0.11662845    -0.15000
C1198       C  0.25955331  0.84034417  0.13092648     0.37300
N1199       N  0.25827763  0.83941132  0.15748980    -0.89300
H1200       H  0.26319018  0.88003520  0.13104674     0.18400
H1201       H  0.26109945  0.80382606  0.07921057     0.18400
N1202       N  0.26764634  0.84507845  0.05274773    -0.88300
H1203       H  0.24278841  0.85026712  0.16295917     0.35800
H1204       H  0.27455586  0.84737815  0.16492327     0.40900
H1205       H  0.25229226  0.85519741  0.04534083     0.40500
H1206       H  0.26706682  0.82729855  0.04478580     0.35400
C1207       C  0.36795614  0.63111802  0.50232359    -0.26300
C1208       C  0.35211543  0.64221312  0.48420122    -0.14400
C1209       C  0.35371973  0.66808748  0.47965257     0.36200
C1210       C  0.37018758  0.68243132  0.49395664    -0.25800
C1211       C  0.38522918  0.67158819  0.51289011    -0.15000
C1212       C  0.38438738  0.64553751  0.51674594     0.37300
N1213       N  0.39986694  0.63360899  0.53545874    -0.89300
H1214       H  0.36709301  0.61125171  0.50588120     0.18400
H1215       H  0.37063925  0.70234814  0.49056390     0.18400
N1216       N  0.33864151  0.67999747  0.46057860    -0.88300
H1217       H  0.41111171  0.62003620  0.52684469     0.35800
H1218       H  0.38811990  0.62457531  0.54781980     0.40900
H1219       H  0.35069743  0.68850782  0.44811051     0.40500
H1220       H  0.32759515  0.69395886  0.46879070     0.35400
C1221       C  0.40425170  0.67759921  0.25875151    -0.26300
C1222       C  0.42423732  0.67425821  0.27593616    -0.14400
C1223       C  0.43467675  0.69573800  0.28724348     0.36200
C1224       C  0.42397316  0.71948699  0.28223273    -0.25800
C1225       C  0.40335781  0.72267247  0.26584528    -0.15000
C1226       C  0.39389555  0.70150191  0.25340220     0.37300
N1227       N  0.37390901  0.70428190  0.23523632    -0.89300
H1228       H  0.39634150  0.66143236  0.24971736     0.18400
H1229       H  0.43146087  0.73560096  0.29171529     0.18400
N1230       N  0.45582163  0.69348310  0.30418773    -0.88300
H1231       H  0.36904518  0.68697172  0.22785945     0.35800
H1232       H  0.38071533  0.71485578  0.22055052     0.40900
H1233       H  0.46053089  0.71085013  0.31149969     0.40500
H1234       H  0.47132887  0.68736645  0.29395910     0.35400
C1235       C  0.35838340  0.58958485  0.34169526    -0.26300
C1236       C  0.38175099  0.57788882  0.34708713    -0.14400
C1237       C  0.38469344  0.56428237  0.36953226     0.36200
C1238       C  0.36540520  0.56510186  0.38712583    -0.25800
C1239       C  0.34294455  0.57870175  0.38265043    -0.15000
C1240       C  0.33902959  0.59011820  0.35922894     0.37300
N1241       N  0.31614300  0.60370884  0.35372464    -0.89300
H1242       H  0.35563197  0.59981095  0.32445881     0.18400
H1243       H  0.36830105  0.55576017  0.40483281     0.18400
N1244       N  0.40752523  0.55028339  0.37475353    -0.88300
H1245       H  0.30799053  0.59601747  0.33775534     0.35800
H1246       H  0.32070130  0.62215821  0.34972249     0.40900
H1247       H  0.40872170  0.53597818  0.36161068     0.40500
H1248       H  0.40676867  0.54162722  0.39211639     0.35400
C1249       C  0.30177941  0.78618251  0.32262539    -0.26300
C1250       C  0.30398579  0.76695509  0.34025141    -0.14400
C1251       C  0.32275758  0.74834078  0.33758067     0.36200
C1252       C  0.33942831  0.74952655  0.31758819    -0.25800
C1253       C  0.33788371  0.76941078  0.30063521    -0.15000
C1254       C  0.31859621  0.78769513  0.30290419     0.37300
N1255       N  0.31651585  0.80798681  0.28542947    -0.89300
H1256       H  0.28717166  0.80039489  0.32463655     0.18400
H1257       H  0.35431577  0.73555030  0.31596388     0.18400
N1258       N  0.32569483  0.72892757  0.35570880    -0.88300
H1259       H  0.30141406  0.81990076  0.28980495     0.35800
H1260       H  0.31241230  0.80045656  0.26798770     0.40900
H1261       H  0.34381515  0.72997309  0.36347330     0.40500
H1262       H  0.32437328  0.71182889  0.34652594     0.35400
C1263       C  0.24848621  0.68517692  0.42947946    -0.26300
C1264       C  0.26240808  0.66710146  0.41636646    -0.14400
C1265       C  0.27591391  0.67475529  0.39532584     0.36200
C1266       C  0.27540138  0.69977151  0.38807571    -0.25800
C1267       C  0.26191510  0.71804872  0.40121357    -0.15000
C1268       C  0.24768762  0.71047717  0.42187626     0.37300
N1269       N  0.23238385  0.72831211  0.43497200    -0.89300
H1270       H  0.23845525  0.67958127  0.44587203     0.18400
H1271       H  0.28655829  0.70496224  0.37238519     0.18400
N1272       N  0.29180379  0.65789983  0.38179805    -0.88300
H1273       H  0.22321629  0.71976382  0.44963265     0.35800
H1274       H  0.21832736  0.73486832  0.42262416     0.40900
H1275       H  0.28074804  0.64384304  0.37417271     0.40500
H1276       H  0.30526842  0.64999998  0.39398816     0.35400
C1277       C  0.17249936  0.89947733  0.53217735    -0.26300
C1278       C  0.16415123  0.90416396  0.50768110    -0.14400
C1279       C  0.14005012  0.89572270  0.50016439     0.36200
C1280       C  0.12583040  0.88181265  0.51662833    -0.25800
C1281       C  0.13495645  0.87576124  0.54053774    -0.15000
C1282       C  0.15826800  0.88538794  0.54856679     0.37300
N1283       N  0.16801326  0.88040726  0.57307882    -0.89300
H1284       H  0.19067453  0.90601862  0.53853387     0.18400
H1285       H  0.10782280  0.87489574  0.51022319     0.18400
N1286       N  0.12961987  0.90026560  0.47584278    -0.88300
H1287       H  0.17096569  0.89747925  0.58189910     0.35800
H1288       H  0.18546716  0.87123264  0.57150359     0.40900
H1289       H  0.14115584  0.89164194  0.46270785     0.40500
H1290       H  0.12875188  0.91948384  0.47268363     0.35400
C1291       C  0.23484660  0.83997032  0.43663203    -0.26300
C1292       C  0.25127186  0.86014258  0.43453388    -0.14400
C1293       C  0.27455722  0.85583560  0.42271699     0.36200
C1294       C  0.27964385  0.83267205  0.41143197    -0.25800
C1295       C  0.26184230  0.81336013  0.41115980    -0.15000
C1296       C  0.23989697  0.81691199  0.42532146     0.37300
N1297       N  0.22198469  0.79737900  0.42739190    -0.89300
H1298       H  0.21723774  0.84228440  0.44630890     0.18400
H1299       H  0.29739995  0.83064236  0.40223455     0.18400
N1300       N  0.29324464  0.87466256  0.42126640    -0.88300
H1301       H  0.20465521  0.80396223  0.42032176     0.35800
H1302       H  0.21986122  0.79334334  0.44623781     0.40900
H1303       H  0.29795301  0.88032925  0.43928865     0.40500
H1304       H  0.28574319  0.88986832  0.41128024     0.35400
C1305       C  0.18766937  0.93427469  0.36527150    -0.26300
C1306       C  0.18148622  0.95045105  0.38483570    -0.14400
C1307       C  0.16028877  0.96663691  0.38198669     0.36200
C1308       C  0.14497962  0.96505994  0.36071181    -0.25800
C1309       C  0.14944260  0.94683991  0.34250181    -0.15000
C1310       C  0.17170031  0.93198418  0.34427346     0.37300
N1311       N  0.17696573  0.91321507  0.32595479    -0.89300
H1312       H  0.20392734  0.92187585  0.36728361     0.18400
H1313       H  0.12822970  0.97689006  0.35946139     0.18400
N1314       N  0.15331769  0.98437738  0.40062853    -0.88300
H1315       H  0.19329309  0.90298727  0.33077299     0.35800
H1316       H  0.18072252  0.92240413  0.30933356     0.40900
H1317       H  0.16887712  0.99535983  0.40477904     0.40500
H1318       H  0.14803811  0.97487871  0.41660797     0.35400
C1319       C  0.20466412  0.76719887  0.22467324    -0.26300
C1320       C  0.18182799  0.75600422  0.21798987    -0.14400
C1321       C  0.17582280  0.75305708  0.19240032     0.36200
C1322       C  0.19362658  0.75909991  0.17464830    -0.25800
C1323       C  0.21743906  0.76746768  0.18178599    -0.15000
C1324       C  0.22241730  0.77304940  0.20678451     0.37300
N1325       N  0.24496714  0.78556408  0.21395755    -0.89300
H1326       H  0.20901847  0.77125423  0.24390642     0.18400
H1327       H  0.18900624  0.75684288  0.15511761     0.18400
N1328       N  0.15154950  0.74536717  0.18369948    -0.88300
H1329       H  0.25372976  0.77529989  0.22828065     0.35800
H1330       H  0.23973245  0.80286287  0.22138339     0.40900
H1331       H  0.13769549  0.75607823  0.19240648     0.40500
H1332       H  0.14918023  0.72651642  0.18779652     0.35400
C1333       C  0.22983692  0.75358719  0.31814435    -0.26300
C1334       C  0.22225681  0.76548726  0.34010031    -0.14400
C1335       C  0.19650986  0.77228067  0.34273339     0.36200
C1336       C  0.17927003  0.76702439  0.32341400    -0.25800
C1337       C  0.18691008  0.75428943  0.30207901    -0.15000
C1338       C  0.21252260  0.74736708  0.29942964     0.37300
N1339       N  0.22163104  0.73330183  0.27859535    -0.89300
H1340       H  0.24947230  0.74877797  0.31538214     0.18400
H1341       H  0.15956098  0.77218618  0.32530710     0.18400
N1342       N  0.18772254  0.78371000  0.36518097    -0.88300
H1343       H  0.23456780  0.74420888  0.26932659     0.35800
H1344       H  0.20723786  0.72916055  0.26589297     0.40900
H1345       H  0.19030083  0.77077656  0.37951496     0.40500
H1346       H  0.16833092  0.78769449  0.36390991     0.35400
C1347       C  0.11826308  0.83868779  0.25524832    -0.26300
C1348       C  0.10321017  0.84351257  0.27600092    -0.14400
C1349       C  0.09607767  0.82308723  0.29097709     0.36200
C1350       C  0.10459072  0.79885069  0.28544850    -0.25800
C1351       C  0.12040364  0.79428830  0.26542227    -0.15000
C1352       C  0.12683982  0.81429745  0.24985675     0.37300
N1353       N  0.14193955  0.80987271  0.22846016    -0.89300
H1354       H  0.12378260  0.85391196  0.24338049     0.18400
H1355       H  0.09969388  0.78363663  0.29763466     0.18400
N1356       N  0.08078832  0.82678885  0.31237175    -0.88300
H1357       H  0.15806373  0.82067113  0.23007319     0.35800
H1358       H  0.13169398  0.81599496  0.21278641     0.40900
H1359       H  0.09086787  0.82017657  0.32795079     0.40500
H1360       H  0.06465900  0.81605707  0.31023734     0.35400
C1361       C  0.09104609  0.67376094  0.23649212    -0.26300
C1362       C  0.09669038  0.65274551  0.25129462    -0.14400
C1363       C  0.11359924  0.65524700  0.27155729     0.36200
C1364       C  0.12529183  0.67838889  0.27582433    -0.25800
C1365       C  0.12072199  0.69918042  0.26000868    -0.15000
C1366       C  0.10301196  0.69649614  0.24032564     0.37300
N1367       N  0.09782910  0.71664310  0.22334416    -0.89300
H1368       H  0.07821482  0.67227155  0.22072813     0.18400
H1369       H  0.13856727  0.67943294  0.29108208     0.18400
N1370       N  0.11916042  0.63425316  0.28748921    -0.88300
H1371       H  0.07851804  0.72074363  0.22361080     0.35800
H1372       H  0.10233932  0.71063510  0.20547162     0.40900
H1373       H  0.10253082  0.62972533  0.29643305     0.40500
H1374       H  0.13213068  0.63904181  0.30141617     0.35400
C1375       C  0.16663116  0.63858161  0.99101279    -0.26300
C1376       C  0.15861012  0.63457153  0.01537707    -0.14400
C1377       C  0.13526212  0.64486210  0.02290542     0.36200
C1378       C  0.12169380  0.66073450  0.00660163    -0.25800
C1379       C  0.13076616  0.66629045  0.98296537    -0.15000
C1380       C  0.15306319  0.65428594  0.97477978     0.37300
N1381       N  0.16339757  0.65895521  0.95084144    -0.89300
H1382       H  0.18431518  0.63048096  0.98489269     0.18400
H1383       H  0.10442416  0.66965685  0.01276677     0.18400
N1384       N  0.12616555  0.64056355  0.04751422    -0.88300
H1385       H  0.16673328  0.67803529  0.94913132     0.35800
H1386       H  0.15035721  0.65361294  0.93721427     0.40900
H1387       H  0.12147542  0.62175781  0.04867510     0.40500
H1388       H  0.10950614  0.65076437  0.05046425     0.35400
C1389       C  0.22803097  0.68191231  0.12104686    -0.26300
C1390       C  0.24120608  0.67262772  0.10064743    -0.14400
C1391       C  0.25976356  0.68765476  0.08989753     0.36200
C1392       C  0.26405206  0.71178550  0.09929019    -0.25800
C1393       C  0.25054750  0.72115085  0.11965441    -0.15000
C1394       C  0.23259902  0.70566917  0.13069105     0.37300
N1395       N  0.21809550  0.71419148  0.15121565    -0.89300
H1396       H  0.21364918  0.67071975  0.12945265     0.18400
H1397       H  0.27807828  0.72323692  0.09069466     0.18400
N1398       N  0.27386699  0.67927021  0.06898995    -0.88300
H1399       H  0.22143289  0.70195013  0.16609278     0.35800
H1400       H  0.19904118  0.71317719  0.14618430     0.40900
H1401       H  0.26124866  0.67491229  0.05464109     0.40500
H1402       H  0.28389986  0.66303374  0.07412781     0.35400
C1403       C  0.17675122  0.58364344  0.15515621    -0.26300
C1404       C  0.17201872  0.57258371  0.13194247    -0.14400
C1405       C  0.15105826  0.55677217  0.12930360     0.36200
C1406       C  0.13446425  0.55413540  0.14897977    -0.25800
C1407       C  0.13768308  0.56740746  0.17121792    -0.15000
C1408       C  0.15970123  0.58146227  0.17476312     0.37300
N1409       N  0.16365164  0.59519318  0.19734798    -0.89300
H1410       H  0.19283184  0.59560856  0.15746326     0.18400
H1411       H  0.11787996  0.54293792  0.14616302     0.18400
N1412       N  0.14560463  0.54365727  0.10674842    -0.88300
H1413       H  0.17991768  0.60576671  0.19635442     0.35800
H1414       H  0.16686490  0.58218285  0.21161550     0.40900
H1415       H  0.16168116  0.53347203  0.10162183     0.40500
H1416       H  0.14072002  0.55647086  0.09279879     0.35400
C1417       C  0.24688580  0.52704698  0.98170565    -0.26300
C1418       C  0.23758881  0.50362121  0.98845574    -0.14400
C1419       C  0.23335871  0.49879143  0.01377122     0.36200
C1420       C  0.23575479  0.51796555  0.03128024    -0.25800
C1421       C  0.24204427  0.54226251  0.02414274    -0.15000
C1422       C  0.24917216  0.54645060  0.99925900     0.37300
N1423       N  0.25711517  0.57069533  0.99149186    -0.89300
H1424       H  0.25066840  0.53084204  0.96237096     0.18400
H1425       H  0.23085630  0.51412664  0.05034294     0.18400
N1426       N  0.22548952  0.47469624  0.02173078    -0.88300
H1427       H  0.26090645  0.57080815  0.97250348     0.35800
H1428       H  0.27414547  0.57425506  0.00070909     0.40900
H1429       H  0.20805433  0.47682250  0.03029046     0.40500
H1430       H  0.23851400  0.46799370  0.03501247     0.35400
C1431       C  0.14751509  0.53289817  0.90097641    -0.26300
C1432       C  0.14412647  0.50703906  0.89998842    -0.14400
C1433       C  0.12522099  0.49743983  0.88413845     0.36200
C1434       C  0.11108692  0.51368782  0.86878533    -0.25800
C1435       C  0.11579563  0.53933604  0.86844168    -0.15000
C1436       C  0.13395087  0.54905643  0.88521427     0.37300
N1437       N  0.14045199  0.57487442  0.88554705    -0.89300
H1438       H  0.16198112  0.54059097  0.91297842     0.18400
H1439       H  0.09724408  0.50595361  0.85610340     0.18400
N1440       N  0.12121825  0.47113998  0.88241522    -0.88300
H1441       H  0.12451765  0.58554531  0.89000872     0.35800
H1442       H  0.14670278  0.57994293  0.86795669     0.40900
H1443       H  0.12426686  0.46565730  0.86406448     0.40500
H1444       H  0.10240069  0.46783297  0.88649599     0.35400
C1445       C  0.21931203  0.44606671  0.83671453    -0.26300
C1446       C  0.23444571  0.44017692  0.85762682    -0.14400
C1447       C  0.25661882  0.42602514  0.85421929     0.36200
C1448       C  0.26201556  0.41615529  0.83073065    -0.25800
C1449       C  0.24550122  0.41968912  0.81003254    -0.15000
C1450       C  0.22463094  0.43645905  0.81317053     0.37300
N1451       N  0.20819741  0.44420045  0.79308159    -0.89300
H1452       H  0.20261431  0.45777717  0.83868964     0.18400
H1453       H  0.27910490  0.40523667  0.82962328     0.18400
N1454       N  0.27363909  0.42116217  0.87464026    -0.88300
H1455       H  0.20008126  0.42885382  0.78460605     0.35800
H1456       H  0.21839909  0.45425678  0.78012171     0.40900
H1457       H  0.29124403  0.42804974  0.87004392     0.40500
H1458       H  0.27548982  0.40182778  0.87689090     0.35400
C1459       C  0.15255629  0.34964575  0.93038719    -0.26300
C1460       C  0.12790504  0.35315540  0.93885674    -0.14400
C1461       C  0.12252597  0.37372641  0.95443476     0.36200
C1462       C  0.14086892  0.39169417  0.95863580    -0.25800
C1463       C  0.16453906  0.38989015  0.94740178    -0.15000
C1464       C  0.17096966  0.36780972  0.93441801     0.37300
N1465       N  0.19543596  0.36471164  0.92372268    -0.89300
H1466       H  0.15696409  0.33361519  0.91891469     0.18400
H1467       H  0.13588733  0.40808885  0.96936314     0.18400
N1468       N  0.09858743  0.37710895  0.96597750    -0.88300
H1469       H  0.19667069  0.34794531  0.91382261     0.35800
H1470       H  0.20851504  0.36319211  0.93834559     0.40900
H1471       H  0.09456045  0.36084786  0.97581411     0.40500
H1472       H  0.08469487  0.38019963  0.95235535     0.35400
C1473       C  0.16573425  0.33989461  0.74618456    -0.26300
C1474       C  0.17510257  0.31639989  0.73898235    -0.14400
C1475       C  0.20120003  0.31216849  0.73790033     0.36200
C1476       C  0.21768311  0.33123246  0.74447778    -0.25800
C1477       C  0.20854221  0.35465708  0.75221805    -0.15000
C1478       C  0.18224367  0.35918587  0.75276879     0.37300
N1479       N  0.17245062  0.38330042  0.75974298    -0.89300
H1480       H  0.14555088  0.34303498  0.74696467     0.18400
H1481       H  0.23778010  0.32747584  0.74395282     0.18400
N1482       N  0.21100022  0.28850146  0.72990245    -0.88300
H1483       H  0.15277728  0.38351723  0.75916269     0.35800
H1484       H  0.17818961  0.39615875  0.74643510     0.40900
H1485       H  0.22257472  0.28115852  0.74411507     0.40500
H1486       H  0.22215301  0.29149946  0.71440305     0.35400
C1487       C  0.09245041  0.26324115  0.81895396    -0.26300
C1488       C  0.10463107  0.28033731  0.83469264    -0.14400
C1489       C  0.12520082  0.29359340  0.82528477     0.36200
C1490       C  0.13209061  0.29071620  0.80042967    -0.25800
C1491       C  0.11935595  0.27444757  0.78443141    -0.15000
C1492       C  0.09992319  0.25980827  0.79408354     0.37300
N1493       N  0.08807513  0.24135105  0.77877349    -0.89300
H1494       H  0.07688132  0.25270303  0.82597607     0.18400
H1495       H  0.14719732  0.30194683  0.79347518     0.18400
N1496       N  0.13876082  0.31075656  0.84058588    -0.88300
H1497       H  0.07431249  0.23208506  0.78867170     0.35800
H1498       H  0.10185108  0.22794036  0.77434467     0.40900
H1499       H  0.13747806  0.32838582  0.83226994     0.40500
H1500       H  0.15771868  0.30512620  0.84104500     0.35400
C1501       C  0.27172423  0.49778984  0.50907322    -0.26300
C1502       C  0.26246361  0.50459806  0.53248251    -0.14400
C1503       C  0.25327280  0.52928768  0.53583869     0.36200
C1504       C  0.25548729  0.54689300  0.51652781    -0.25800
C1505       C  0.26655624  0.54048677  0.49381115    -0.15000
C1506       C  0.27411403  0.51542219  0.48995389     0.37300
N1507       N  0.28591326  0.50804148  0.46733057    -0.89300
H1508       H  0.27893798  0.47901932  0.50604252     0.18400
H1509       H  0.24946505  0.56603307  0.51964530     0.18400
N1510       N  0.24286166  0.53679722  0.55918583    -0.88300
H1511       H  0.27553016  0.49358398  0.45949610     0.35800
H1512       H  0.30395343  0.50101952  0.47171249     0.40900
H1513       H  0.22632256  0.52686258  0.56156741     0.40500
H1514       H  0.23763457  0.55569633  0.55882150     0.35400
C1515       C  0.37047501  0.49491950  0.63551952    -0.26300
C1516       C  0.35027920  0.50721573  0.62326807    -0.14400
C1517       C  0.34809173  0.53346042  0.62459796     0.36200
C1518       C  0.36520972  0.54658168  0.63955737    -0.25800
C1519       C  0.38420179  0.53399822  0.65342188    -0.15000
C1520       C  0.38730356  0.50799273  0.65064455     0.37300
N1521       N  0.40713564  0.49461610  0.66353656    -0.89300
H1522       H  0.37255315  0.47480232  0.63443287     0.18400
H1523       H  0.36296019  0.56663047  0.64123243     0.18400
N1524       N  0.32820145  0.54662447  0.61135014    -0.88300
H1525       H  0.41808999  0.48532561  0.65036745     0.35800
H1526       H  0.39899578  0.48117289  0.67480157     0.40900
H1527       H  0.33119648  0.54409659  0.59236429     0.40500
H1528       H  0.32908374  0.56579475  0.61463823     0.35400
C1529       C  0.24635505  0.41998771  0.67146473    -0.26300
C1530       C  0.26628104  0.43646784  0.66795517    -0.14400
C1531       C  0.28114230  0.44333369  0.68905327     0.36200
C1532       C  0.27567124  0.43389502  0.71252956    -0.25800
C1533       C  0.25600654  0.41731061  0.71584836    -0.15000
C1534       C  0.24112941  0.41042433  0.69515955     0.37300
N1535       N  0.22043104  0.39401942  0.69821035    -0.89300
H1536       H  0.23479465  0.41439276  0.65575330     0.18400
H1537       H  0.28752356  0.43892544  0.72824741     0.18400
N1538       N  0.30255525  0.45907607  0.68735392    -0.88300
H1539       H  0.22334344  0.37846835  0.68687237     0.35800
H1540       H  0.20401447  0.40330924  0.69200466     0.40900
H1541       H  0.29664437  0.47669752  0.68102363     0.40500
H1542       H  0.31537516  0.45111452  0.67500802     0.35400
C1543       C  0.35814012  0.40370943  0.55324764    -0.26300
C1544       C  0.33599913  0.39784746  0.56577122    -0.14400
C1545       C  0.33175760  0.37275445  0.57210874     0.36200
C1546       C  0.35090620  0.35473822  0.56867185    -0.25800
C1547       C  0.37433345  0.36137556  0.55916620    -0.15000
C1548       C  0.37726885  0.38571507  0.54968066     0.37300
N1549       N  0.40008122  0.39238911  0.53751175    -0.89300
H1550       H  0.36116407  0.42273268  0.54732855     0.18400
H1551       H  0.34809064  0.33595461  0.57541177     0.18400
N1552       N  0.30872919  0.36566543  0.58337899    -0.88300
H1553       H  0.39933281  0.41111538  0.53198094     0.35800
H1554       H  0.40122781  0.38180984  0.52128257     0.40900
H1555       H  0.31308388  0.35775341  0.60071754     0.40500
H1556       H  0.30050734  0.35194176  0.57229644     0.35400
C1557       C  0.29090358  0.33058204  0.77410305    -0.26300
C1558       C  0.29193464  0.35254106  0.76020398    -0.14400
C1559       C  0.31201114  0.35599370  0.74403926     0.36200
C1560       C  0.33078252  0.33751004  0.74221412    -0.25800
C1561       C  0.32940664  0.31443782  0.75498223    -0.15000
C1562       C  0.30900617  0.31138428  0.77143719     0.37300
N1563       N  0.30599110  0.28900293  0.78544095    -0.89300
H1564       H  0.27552800  0.32806905  0.78681028     0.18400
H1565       H  0.34651065  0.34164223  0.73054537     0.18400
N1566       N  0.31394130  0.37821273  0.72941177    -0.88300
H1567       H  0.30673113  0.29362287  0.80427537     0.35800
H1568       H  0.28804450  0.28214319  0.78167838     0.40900
H1569       H  0.31387068  0.39359067  0.74130189     0.40500
H1570       H  0.29812608  0.37959276  0.71764033     0.35400
C1571       C  0.41918675  0.27483362  0.69623647    -0.26300
C1572       C  0.39294684  0.27287757  0.69897659    -0.14400
C1573       C  0.37768514  0.27302810  0.67704669     0.36200
C1574       C  0.38846039  0.27644354  0.65366869    -0.25800
C1575       C  0.41434234  0.28016095  0.65130525    -0.15000
C1576       C  0.42985496  0.27861029  0.67280928     0.37300
N1577       N  0.45655597  0.28120274  0.67104937    -0.89300
H1578       H  0.43184339  0.27423774  0.71206110     0.18400
H1579       H  0.37618725  0.27760422  0.63741527     0.18400
N1580       N  0.35091608  0.27059045  0.67848037    -0.88300
H1581       H  0.46522881  0.26504768  0.67831383     0.35800
H1582       H  0.46190612  0.29624853  0.68214584     0.40900
H1583       H  0.34568977  0.25515961  0.66787954     0.40500
H1584       H  0.34235532  0.28650114  0.67056744     0.35400
C1585       C  0.26677779  0.01056772  0.97990155    -0.26300
C1586       C  0.27530259  0.03433423  0.98685037    -0.14400
C1587       C  0.28163149  0.03827272  0.01226046     0.36200
C1588       C  0.28144116  0.01829152  0.02914887    -0.25800
C1589       C  0.27551785  0.99399382  0.02156831    -0.15000
C1590       C  0.26675604  0.99044934  0.99689024     0.37300
N1591       N  0.25866811  0.96628785  0.98886627    -0.89300
H1592       H  0.26122777  0.00726146  0.96076355     0.18400
H1593       H  0.28770090  0.02158376  0.04809134     0.18400
N1594       N  0.28947184  0.06197767  0.02148059    -0.88300
H1595       H  0.25315088  0.96672801  0.97014321     0.35800
H1596       H  0.24262316  0.96199006  0.99889835     0.40900
H1597       H  0.27549042  0.07533173  0.01716483     0.40500
H1598       H  0.30630754  0.06674038  0.01305614     0.35400
C1599       C  0.37284929  0.02222578  0.90244225    -0.26300
C1600       C  0.36190970  0.04348706  0.89106186    -0.14400
C1601       C  0.36782730  0.04891337  0.86617974     0.36200
C1602       C  0.38221397  0.03183664  0.85255035    -0.25800
C1603       C  0.39109177  0.00938776  0.86323137    -0.15000
C1604       C  0.38746311  0.00521878  0.88879684     0.37300
N1605       N  0.39811729  0.98358360  0.90091300    -0.89300
H1606       H  0.36919622  0.01814586  0.92174986     0.18400
H1607       H  0.38542400  0.03576232  0.83312376     0.18400
N1608       N  0.35870235  0.07134915  0.85433406    -0.88300
H1609       H  0.38346296  0.97353686  0.90860056     0.35800
H1610       H  0.40980205  0.98957157  0.91545013     0.40900
H1611       H  0.34779290  0.06641670  0.83883511     0.40500
H1612       H  0.37421384  0.08117673  0.84810385     0.35400
C1613       C  0.39797731  0.27554811  0.84050297    -0.26300
C1614       C  0.42040694  0.26134792  0.84299590    -0.14400
C1615       C  0.43202361  0.25245999  0.82111991     0.36200
C1616       C  0.41986112  0.25596388  0.79789633    -0.25800
C1617       C  0.39687441  0.26928350  0.79542296    -0.15000
C1618       C  0.38651040  0.28003716  0.81704712     0.37300
N1619       N  0.36465207  0.29601061  0.81538234    -0.89300
H1620       H  0.38904702  0.28304380  0.85689414     0.18400
H1621       H  0.42828656  0.24763622  0.78166720     0.18400
N1622       N  0.45583558  0.23925884  0.82246122    -0.88300
H1623       H  0.36937721  0.31343946  0.82257030     0.35800
H1624       H  0.35080739  0.28853598  0.82662995     0.40900
H1625       H  0.46935608  0.25196882  0.82838890     0.40500
H1626       H  0.46132027  0.23324126  0.80487318     0.35400
C1627       C  0.35790181  0.19114415  0.93177478    -0.26300
C1628       C  0.38183125  0.18665057  0.94270212    -0.14400
C1629       C  0.38544833  0.16510186  0.95777532     0.36200
C1630       C  0.36629396  0.14772686  0.95946424    -0.25800
C1631       C  0.34349732  0.15083810  0.94624315    -0.15000
C1632       C  0.33868671  0.17343133  0.93329918     0.37300
N1633       N  0.31519679  0.17748835  0.92013823    -0.89300
H1634       H  0.35466449  0.20773829  0.92057114     0.18400
H1635       H  0.36997981  0.13071973  0.96993901     0.18400
N1636       N  0.40856206  0.15969563  0.97095961    -0.88300
H1637       H  0.31519274  0.19448603  0.91057713     0.35800
H1638       H  0.30108572  0.17906963  0.93337260     0.40900
H1639       H  0.41323683  0.17512816  0.98181322     0.40500
H1640       H  0.42278773  0.15595132  0.95826694     0.35400
C1641       C  0.20076623  0.20299414  0.77139431    -0.26300
C1642       C  0.21237211  0.18939103  0.75231251    -0.14400
C1643       C  0.20538870  0.19495821  0.72749149     0.36200
C1644       C  0.18866707  0.21499449  0.72223885    -0.25800
C1645       C  0.17741711  0.22895666  0.74134281    -0.15000
C1646       C  0.18294058  0.22201241  0.76621627     0.37300
N1647       N  0.16986192  0.23339415  0.78641535    -0.89300
H1648       H  0.20548437  0.19894721  0.79064003     0.18400
H1649       H  0.18444290  0.21948002  0.70299048     0.18400
N1650       N  0.21440456  0.17981110  0.70753029    -0.88300
H1651       H  0.18317452  0.24117319  0.79848227     0.35800
H1652       H  0.16054366  0.21946165  0.79605533     0.40900
H1653       H  0.22368040  0.19130617  0.69508481     0.40500
H1654       H  0.19885002  0.17232100  0.69824274     0.35400
C1655       C  0.28919441  0.21355816  0.74900477    -0.26300
C1656       C  0.29723098  0.19007652  0.75801906    -0.14400
C1657       C  0.32332220  0.18577471  0.76286649     0.36200
C1658       C  0.34014412  0.20539655  0.76059075    -0.25800
C1659       C  0.33181808  0.22906188  0.75274619    -0.15000
C1660       C  0.30635706  0.23287500  0.74585447     0.37300
N1661       N  0.29812936  0.25588539  0.73453660    -0.89300
H1662       H  0.26949416  0.21700014  0.74440118     0.18400
H1663       H  0.36002667  0.20197908  0.76434162     0.18400
N1664       N  0.33364085  0.16144476  0.76831706    -0.88300
H1665       H  0.29165479  0.25189400  0.71657222     0.35800
H1666       H  0.28274066  0.26284653  0.74435234     0.40900
H1667       H  0.32712409  0.14895563  0.75489348     0.40500
H1668       H  0.32800762  0.15565972  0.78580621     0.35400
C1669       C  0.25512542  0.13114531  0.85626961    -0.26300
C1670       C  0.26156982  0.10584854  0.85939269    -0.14400
C1671       C  0.26304656  0.09065063  0.83800224     0.36200
C1672       C  0.25942566  0.10117489  0.81417134    -0.25800
C1673       C  0.25467008  0.12694044  0.81089233    -0.15000
C1674       C  0.25202637  0.14178804  0.83255263     0.37300
N1675       N  0.24735755  0.16814686  0.83058337    -0.89300
H1676       H  0.25398417  0.14325793  0.87231110     0.18400
H1677       H  0.26167514  0.08896840  0.79845984     0.18400
N1678       N  0.26923925  0.06460915  0.84020091    -0.88300
H1679       H  0.26214531  0.17731025  0.83953514     0.35800
H1680       H  0.23075297  0.17244632  0.83994138     0.40900
H1681       H  0.28575992  0.06108638  0.83040705     0.40500
H1682       H  0.25475617  0.05456168  0.83177305     0.35400
C1683       C  0.22994941  0.04024358  0.51259121    -0.26300
C1684       C  0.23963187  0.03574597  0.53665122    -0.14400
C1685       C  0.25290841  0.01301157  0.54128085     0.36200
C1686       C  0.25380548  0.99445891  0.52262937    -0.25800
C1687       C  0.24185257  0.99811974  0.49932351    -0.15000
C1688       C  0.23085351  0.02181648  0.49407895     0.37300
N1689       N  0.21944549  0.02702035  0.47029880    -0.89300
H1690       H  0.22009541  0.05767307  0.50843326     0.18400
H1691       H  0.26275159  0.97658709  0.52682604     0.18400
N1692       N  0.26473677  0.00848429  0.56509603    -0.88300
H1693       H  0.22814997  0.04257953  0.46278957     0.35800
H1694       H  0.20046134  0.03163511  0.47294872     0.40900
H1695       H  0.27902284  0.02148778  0.56731157     0.40500
H1696       H  0.27351110  0.99086080  0.56556549     0.35400
C1697       C  0.13553662  0.05926714  0.65185813    -0.26300
C1698       C  0.14483321  0.04802527  0.63024929    -0.14400
C1699       C  0.13641722  0.02413717  0.62348854     0.36200
C1700       C  0.12056996  0.01119880  0.63952579    -0.25800
C1701       C  0.11305361  0.02157784  0.66226011    -0.15000
C1702       C  0.11988655  0.04626451  0.66792661     0.37300
N1703       N  0.11156749  0.05803983  0.69026854    -0.89300
H1704       H  0.14153601  0.07777035  0.65708264     0.18400
H1705       H  0.11503713  0.99244919  0.63471997     0.18400
N1706       N  0.14442749  0.01287808  0.60066858    -0.88300
H1707       H  0.10162836  0.07438567  0.68537646     0.35800
H1708       H  0.12746717  0.06303561  0.70068993     0.40900
H1709       H  0.13712169  0.02386188  0.58607110     0.40500
H1710       H  0.13673402  0.99520128  0.59854793     0.35400
C1711       C  0.25922551  0.12609401  0.66885024    -0.26300
C1712       C  0.24468840  0.10460592  0.66614393    -0.14400
C1713       C  0.23658209  0.09251362  0.68790606     0.36200
C1714       C  0.24158669  0.10287683  0.71136904    -0.25800
C1715       C  0.25511703  0.12503940  0.71415257    -0.15000
C1716       C  0.26482977  0.13611158  0.69248399     0.37300
N1717       N  0.28072554  0.15731905  0.69420325    -0.89300
H1718       H  0.26600438  0.13548926  0.65250433     0.18400
H1719       H  0.23374670  0.09385115  0.72740011     0.18400
N1720       N  0.22237489  0.07008950  0.68640809    -0.88300
H1721       H  0.27236680  0.17179310  0.68373317     0.35800
H1722       H  0.29795803  0.15264874  0.68617963     0.40900
H1723       H  0.20501161  0.07334543  0.69479268     0.40500
H1724       H  0.23207698  0.05619404  0.69655084     0.35400
C1725       C  0.10955370  0.26792545  0.64231881    -0.26300
C1726       C  0.08355990  0.26411952  0.64175799    -0.14400
C1727       C  0.07024534  0.26569406  0.66423879     0.36200
C1728       C  0.08347357  0.26929497  0.68693006    -0.25800
C1729       C  0.10993155  0.27121594  0.68777764    -0.15000
C1730       C  0.12276851  0.27113708  0.66484052     0.37300
N1731       N  0.14961295  0.27329474  0.66436193    -0.89300
H1732       H  0.12008856  0.26669613  0.62528501     0.18400
H1733       H  0.07285559  0.26980264  0.70380252     0.18400
N1734       N  0.04335212  0.26313400  0.66399341    -0.88300
H1735       H  0.15712293  0.25733884  0.65590363     0.35800
H1736       H  0.15384803  0.28872048  0.65338693     0.40900
H1737       H  0.03560471  0.27813260  0.65388012     0.40500
H1738       H  0.03632137  0.26460322  0.68198423     0.35400
C1739       C  0.14620789  0.18905426  0.57610479    -0.26300
C1740       C  0.12548555  0.18341270  0.56068854    -0.14400
C1741       C  0.12674389  0.16170481  0.54583170     0.36200
C1742       C  0.14729229  0.14515932  0.54847009    -0.25800
C1743       C  0.16647433  0.14918961  0.56620951    -0.15000
C1744       C  0.16662236  0.17209283  0.57923259     0.37300
N1745       N  0.18632099  0.17722287  0.59701619    -0.89300
H1746       H  0.14558384  0.20584206  0.58727137     0.18400
H1747       H  0.14726637  0.12804593  0.53778942     0.18400
N1748       N  0.10721883  0.15555159  0.52834973    -0.88300
H1749       H  0.18284500  0.19422589  0.60595207     0.35800
H1750       H  0.20293772  0.17934557  0.58718743     0.40900
H1751       H  0.10393588  0.17083245  0.51657247     0.40500
H1752       H  0.09077743  0.15173682  0.53789436     0.35400
C1753       C  0.48883024  0.03892051  0.76923601    -0.26300
C1754       C  0.51408191  0.03337607  0.77571711    -0.14400
C1755       C  0.52086720  0.00842750  0.78157092     0.36200
C1756       C  0.50223954  0.99016467  0.78283753    -0.25800
C1757       C  0.47667383  0.99618279  0.77847072    -0.15000
C1758       C  0.47014613  0.02070986  0.77071965     0.37300
N1759       N  0.44435564  0.02777953  0.76606093    -0.89300
H1760       H  0.48313866  0.05792764  0.76470349     0.18400
H1761       H  0.50772386  0.97142928  0.78858547     0.18400
N1762       N  0.54655773  0.00163767  0.78708806    -0.88300
H1763       H  0.44282482  0.03486718  0.74798882     0.35800
H1764       H  0.43952569  0.04210072  0.77834692     0.40900
H1765       H  0.55205249  0.98767971  0.77467023     0.40500
H1766       H  0.54749007  0.99412714  0.80502182     0.35400
C1767       C  0.47357277  0.15003348  0.86701291    -0.26300
C1768       C  0.48632225  0.16494047  0.88441346    -0.14400
C1769       C  0.51249495  0.16116899  0.88829039     0.36200
C1770       C  0.52551862  0.14395570  0.87344344    -0.25800
C1771       C  0.51307878  0.13070070  0.85460945    -0.15000
C1772       C  0.48667414  0.13304656  0.85195723     0.37300
N1773       N  0.47336837  0.11886501  0.83346800    -0.89300
H1774       H  0.45343683  0.15250653  0.86421621     0.18400
H1775       H  0.54576419  0.14196224  0.87570695     0.18400
N1776       N  0.52597096  0.17542962  0.90657576    -0.88300
H1777       H  0.45408991  0.12317006  0.83363224     0.35800
H1778       H  0.47532401  0.10002343  0.83829985     0.40900
H1779       H  0.54519910  0.17093954  0.90645130     0.40500
H1780       H  0.51948342  0.17019679  0.92402577     0.35400
C1781       C  0.57360221  0.18851849  0.77277626    -0.26300
C1782       C  0.58139215  0.16600290  0.76163107    -0.14400
C1783       C  0.59951398  0.16696435  0.74290825     0.36200
C1784       C  0.61004596  0.18987246  0.73638199    -0.25800
C1785       C  0.60328596  0.21246177  0.74833546    -0.15000
C1786       C  0.58459436  0.21137729  0.76674434     0.37300
N1787       N  0.57777465  0.23320035  0.78058507    -0.89300
H1788       H  0.55986705  0.18830935  0.78742362     0.18400
H1789       H  0.62499596  0.18900012  0.72314542     0.18400
N1790       N  0.60840226  0.14455867  0.73124791    -0.88300
H1791       H  0.58169491  0.22968252  0.79937484     0.35800
H1792       H  0.55836591  0.23625547  0.77844758     0.40900
H1793       H  0.62782755  0.14289549  0.73453465     0.40500
H1794       H  0.60533185  0.14637734  0.71210733     0.35400
C1795       C  0.67197581  0.09435643  0.85116020    -0.26300
C1796       C  0.66901916  0.08501450  0.87529241    -0.14400
C1797       C  0.64743709  0.07114650  0.88070703     0.36200
C1798       C  0.62815713  0.06922566  0.86274302    -0.25800
C1799       C  0.62991050  0.08078953  0.83943282    -0.15000
C1800       C  0.65256938  0.09248484  0.83323238     0.37300
N1801       N  0.65538263  0.10393307  0.80941741    -0.89300
H1802       H  0.68859535  0.10477839  0.84668809     0.18400
H1803       H  0.61108106  0.05968029  0.86747179     0.18400
N1804       N  0.64471652  0.05987793  0.90474890    -0.88300
H1805       H  0.67127990  0.09597010  0.80114888     0.35800
H1806       H  0.65871497  0.12290123  0.81214295     0.40900
H1807       H  0.65890783  0.04620680  0.90679656     0.40500
H1808       H  0.62758057  0.05069747  0.90582990     0.35400
C1809       C  0.50676700  0.48979158  0.74673422    -0.26300
C1810       C  0.52940606  0.49516628  0.73486469    -0.14400
C1811       C  0.53315708  0.51980288  0.72643953     0.36200
C1812       C  0.51329368  0.53755182  0.72761795    -0.25800
C1813       C  0.48957236  0.53131717  0.73684905    -0.15000
C1814       C  0.48683787  0.50746638  0.74760704     0.37300
N1815       N  0.46340513  0.50046065  0.75809668    -0.89300
H1816       H  0.50363039  0.47109848  0.75356708     0.18400
H1817       H  0.51594708  0.55594739  0.71983868     0.18400
N1818       N  0.55668154  0.52642140  0.71561042    -0.88300
H1819       H  0.46685968  0.49510201  0.77653513     0.35800
H1820       H  0.45683584  0.48492273  0.74842458     0.40900
H1821       H  0.57059621  0.52478611  0.72949672     0.40500
H1822       H  0.55625365  0.54510728  0.70996334     0.35400
C1823       C  0.52399594  0.39123887  0.62784494    -0.26300
C1824       C  0.51465474  0.40100798  0.65015756    -0.14400
C1825       C  0.48874533  0.39877197  0.65526637     0.36200
C1826       C  0.47342636  0.38510002  0.63896179    -0.25800
C1827       C  0.48342307  0.37347412  0.61787887    -0.15000
C1828       C  0.50865907  0.37761092  0.61160456     0.37300
N1829       N  0.51876669  0.36758465  0.58903592    -0.89300
H1830       H  0.54361244  0.39355915  0.62333004     0.18400
H1831       H  0.45390098  0.38230746  0.64357773     0.18400
N1832       N  0.47809971  0.40972450  0.67716337    -0.88300
H1833       H  0.53770760  0.37215788  0.58732252     0.35800
H1834       H  0.50908995  0.37624989  0.57420959     0.40900
H1835       H  0.48472858  0.39929041  0.69241191     0.40500
H1836       H  0.45851468  0.40804335  0.67693210     0.35400
C1837       C  0.58639425  0.34416303  0.74975925    -0.26300
C1838       C  0.59831810  0.35850531  0.73159273    -0.14400
C1839       C  0.61781331  0.34711528  0.71778303     0.36200
C1840       C  0.62513452  0.32223622  0.72244931    -0.25800
C1841       C  0.61314792  0.30786189  0.74032961    -0.15000
C1842       C  0.59370414  0.31903794  0.75426073     0.37300
N1843       N  0.58167513  0.30511797  0.77327245    -0.89300
H1844       H  0.57129568  0.35242057  0.76045097     0.18400
H1845       H  0.63987816  0.31386180  0.71136005     0.18400
N1846       N  0.62955510  0.36033251  0.69808292    -0.88300
H1847       H  0.56239466  0.30486694  0.76911192     0.35800
H1848       H  0.58413895  0.31455390  0.79008944     0.40900
H1849       H  0.62665909  0.35042446  0.68160060     0.40500
H1850       H  0.64891900  0.36058748  0.70181553     0.35400
C1851       C  0.62150114  0.46718285  0.63242884    -0.26300
C1852       C  0.62894605  0.45757721  0.65576138    -0.14400
C1853       C  0.65471847  0.45200291  0.66034743     0.36200
C1854       C  0.67188694  0.45395782  0.64078170    -0.25800
C1855       C  0.66385979  0.46113799  0.61672994    -0.15000
C1856       C  0.63843501  0.46880185  0.61293828     0.37300
N1857       N  0.62900152  0.47788519  0.58947191    -0.89300
H1858       H  0.60191849  0.47219068  0.62879004     0.18400
H1859       H  0.69133567  0.44819630  0.64396899     0.18400
N1860       N  0.66314252  0.44278886  0.68421033    -0.88300
H1861       H  0.62950206  0.46345217  0.57649541     0.35800
H1862       H  0.64041762  0.49235633  0.58359974     0.40900
H1863       H  0.66093162  0.45733892  0.69692747     0.40500
H1864       H  0.68239749  0.43837102  0.68405626     0.35400
C1865       C  0.71471510  0.26682936  0.68892896    -0.26300
C1866       C  0.70706017  0.26288314  0.66417798    -0.14400
C1867       C  0.68150953  0.25815028  0.65891057     0.36200
C1868       C  0.66434754  0.25651501  0.67835337    -0.25800
C1869       C  0.67211590  0.25956941  0.70319670    -0.15000
C1870       C  0.69752790  0.26504592  0.70844631     0.37300
N1871       N  0.70624620  0.26759120  0.73360470    -0.89300
H1872       H  0.73434772  0.27022675  0.69327332     0.18400
H1873       H  0.64480648  0.25272299  0.67397660     0.18400
N1874       N  0.67285916  0.25518232  0.63377910    -0.88300
H1875       H  0.71417571  0.28519741  0.73553117     0.35800
H1876       H  0.72043881  0.25416539  0.73693491     0.40900
H1877       H  0.65882244  0.26870287  0.63017538     0.40500
H1878       H  0.66472341  0.23763900  0.63219110     0.35400
C1879       C  0.72889531  0.33173336  0.61902630    -0.26300
C1880       C  0.74538516  0.31557908  0.60652875    -0.14400
C1881       C  0.76051298  0.32548209  0.58770897     0.36200
C1882       C  0.75768896  0.35076863  0.58071419    -0.25800
C1883       C  0.74038571  0.36675003  0.59258343    -0.15000
C1884       C  0.72636054  0.35702485  0.61244340     0.37300
N1885       N  0.70901030  0.37254619  0.62577663    -0.89300
H1886       H  0.71736672  0.32460318  0.63375616     0.18400
H1887       H  0.76887040  0.35778725  0.56567278     0.18400
N1888       N  0.77920895  0.31013147  0.57605267    -0.88300
H1889       H  0.71435849  0.37220460  0.64454764     0.35800
H1890       H  0.69111968  0.36484781  0.62412151     0.40900
H1891       H  0.79673882  0.31826785  0.57904355     0.40500
H1892       H  0.77543561  0.31013721  0.55694574     0.35400
C1893       C  0.69957981  0.24998271  0.82307583    -0.26300
C1894       C  0.70537038  0.27489266  0.82820780    -0.14400
C1895       C  0.69363554  0.29404482  0.81371065     0.36200
C1896       C  0.67607206  0.28777277  0.79506646    -0.25800
C1897       C  0.67086065  0.26283692  0.78947312    -0.15000
C1898       C  0.68311475  0.24375342  0.80355529     0.37300
N1899       N  0.67983235  0.21797801  0.79759366    -0.89300
H1900       H  0.70831808  0.23503817  0.83391151     0.18400
H1901       H  0.66660354  0.30259586  0.78468729     0.18400
N1902       N  0.70002641  0.31975488  0.81728205    -0.88300
H1903       H  0.67306566  0.20897736  0.81331272     0.35800
H1904       H  0.69746516  0.21013884  0.79356464     0.40900
H1905       H  0.68962562  0.33133244  0.80525343     0.40500
H1906       H  0.71898413  0.32170388  0.81258639     0.35400
C1907       C  0.73947402  0.22871251  0.91257304    -0.26300
C1908       C  0.75152941  0.23224332  0.88983269    -0.14400
C1909       C  0.76289527  0.21121217  0.87841110     0.36200
C1910       C  0.76043749  0.18725213  0.88892784    -0.25800
C1911       C  0.74772666  0.18377814  0.91133867    -0.15000
C1912       C  0.73774106  0.20514858  0.92350350     0.37300
N1913       N  0.72460117  0.20362330  0.94646563    -0.89300
H1914       H  0.73037574  0.24429798  0.92177118     0.18400
H1915       H  0.76841127  0.17125546  0.87938691     0.18400
N1916       N  0.77743702  0.21399921  0.85647331    -0.88300
H1917       H  0.73676543  0.19613350  0.96004304     0.35800
H1918       H  0.70900313  0.19213792  0.94406777     0.40900
H1919       H  0.76956177  0.20287762  0.84255465     0.40500
H1920       H  0.79568789  0.20724172  0.86028407     0.35400
C1921       C  0.80201864  0.27591562  0.78168964    -0.26300
C1922       C  0.82731697  0.27880435  0.78863856    -0.14400
C1923       C  0.83411330  0.27956030  0.81398122     0.36200
C1924       C  0.81543979  0.27847123  0.83196689    -0.25800
C1925       C  0.78991726  0.27698895  0.82511215    -0.15000
C1926       C  0.78321598  0.27535574  0.79959669     0.37300
N1927       N  0.75754740  0.27495961  0.79114725    -0.89300
H1928       H  0.79668262  0.27560839  0.76217535     0.18400
H1929       H  0.82082033  0.27978320  0.85142071     0.18400
N1930       N  0.85996475  0.28181872  0.82147926    -0.88300
H1931       H  0.74814265  0.29071000  0.79814151     0.35800
H1932       H  0.74923944  0.25892835  0.79784245     0.40900
H1933       H  0.86483183  0.26655589  0.83278665     0.40500
H1934       H  0.86159384  0.29800681  0.83215093     0.35400
C1935       C  0.81755727  0.29803633  0.68937066    -0.26300
C1936       C  0.82787273  0.27779458  0.70312133    -0.14400
C1937       C  0.82045438  0.25345853  0.69653353     0.36200
C1938       C  0.80180752  0.25013064  0.67813270    -0.25800
C1939       C  0.79133069  0.27041601  0.66475388    -0.15000
C1940       C  0.80024472  0.29460908  0.66990754     0.37300
N1941       N  0.79374874  0.31585721  0.65474606    -0.89300
H1942       H  0.82287387  0.31695924  0.69357533     0.18400
H1943       H  0.79577575  0.23136189  0.67404498     0.18400
N1944       N  0.83245023  0.23188975  0.70748571    -0.88300
H1945       H  0.77516076  0.32158113  0.65784503     0.35800
H1946       H  0.79603177  0.31123666  0.63612771     0.40900
H1947       H  0.84060595  0.22132579  0.69333909     0.40500
H1948       H  0.81859814  0.22114881  0.71569669     0.35400
C1949       C  0.73842737  0.20042960  0.59308444    -0.26300
C1950       C  0.75490514  0.22082374  0.59328879    -0.14400
C1951       C  0.77653375  0.21885301  0.57834196     0.36200
C1952       C  0.78268049  0.19614210  0.56650346    -0.25800
C1953       C  0.76762956  0.17492800  0.56902369    -0.15000
C1954       C  0.74468160  0.17771744  0.58176560     0.37300
N1955       N  0.72744322  0.15768633  0.58435755    -0.89300
H1956       H  0.72067634  0.20110110  0.60234246     0.18400
H1957       H  0.79996668  0.19490382  0.55613796     0.18400
N1958       N  0.79282395  0.23967182  0.57577884    -0.88300
H1959       H  0.73620090  0.14328705  0.59458564     0.35800
H1960       H  0.72231554  0.15129102  0.56669877     0.40900
H1961       H  0.79382475  0.24404160  0.55689918     0.40500
H1962       H  0.81084993  0.23423279  0.58202090     0.35400
C1963       C  0.97212739  0.02757486  0.73408915    -0.26300
C1964       C  0.97747250  0.05219740  0.74113682    -0.14400
C1965       C  0.00095237  0.05679380  0.75276506     0.36200
C1966       C  0.01965680  0.03786511  0.75388241    -0.25800
C1967       C  0.01543630  0.01415798  0.74371266    -0.15000
C1968       C  0.99078639  0.00857411  0.73537004     0.37300
N1969       N  0.98482228  0.98394333  0.72717698    -0.89300
H1970       H  0.95393968  0.02332360  0.72590391     0.18400
H1971       H  0.03813440  0.04238676  0.76119550     0.18400
N1972       N  0.00636901  0.08096614  0.76251758    -0.88300
H1973       H  0.97845303  0.98506465  0.70873165     0.35800
H1974       H  0.97003135  0.97754798  0.73792019     0.40900
H1975       H  0.02214413  0.08767728  0.75347868     0.40500
H1976       H  0.01100969  0.07892450  0.78136646     0.35400
C1977       C  0.96799971  0.15904900  0.62894061    -0.26300
C1978       C  0.97994385  0.14287401  0.64622844    -0.14400
C1979       C  0.00636603  0.13975305  0.64555521     0.36200
C1980       C  0.02033698  0.15400514  0.62897911    -0.25800
C1981       C  0.00848877  0.17142472  0.61290681    -0.15000
C1982       C  0.98192272  0.17323488  0.61222327     0.37300
N1983       N  0.96915194  0.18966854  0.59482156    -0.89300
H1984       H  0.94768632  0.16125301  0.62891305     0.18400
H1985       H  0.04068538  0.15207636  0.62942685     0.18400
N1986       N  0.01919784  0.12237260  0.66179703    -0.88300
H1987       H  0.94964598  0.18899372  0.59694276     0.35800
H1988       H  0.97284990  0.18300884  0.57698826     0.40900
H1989       H  0.03226870  0.13216458  0.67252750     0.40500
H1990       H  0.02913466  0.10958391  0.65086631     0.35400
C1991       C  0.87864243  0.21387110  0.75611777    -0.26300
C1992       C  0.89007358  0.23440531  0.74477686    -0.14400
C1993       C  0.91087759  0.22974421  0.72934143     0.36200
C1994       C  0.91977497  0.20529301  0.72569083    -0.25800
C1995       C  0.90808964  0.18465768  0.73637736    -0.15000
C1996       C  0.88742100  0.18914720  0.75205706     0.37300
N1997       N  0.87516357  0.16879807  0.76376411    -0.89300
H1998       H  0.86270500  0.21694958  0.76809480     0.18400
H1999       H  0.93549579  0.20251007  0.71337054     0.18400
N2000       N  0.92237238  0.24960372  0.71608880    -0.88300
H2001       H  0.85619256  0.16936321  0.75827354     0.35800
H2002       H  0.87609634  0.17157246  0.78297028     0.40900
H2003       H  0.92096371  0.24581023  0.69709505     0.40500
H2004       H  0.94148010  0.24976354  0.72109650     0.35400
C2005       C  0.84860046  0.09601231  0.65983379    -0.26300
C2006       C  0.87244629  0.08440190  0.65782416    -0.14400
C2007       C  0.87708254  0.06894859  0.63697119     0.36200
C2008       C  0.85935177  0.06815001  0.61754385    -0.25800
C2009       C  0.83694808  0.08239322  0.61820210    -0.15000
C2010       C  0.83090248  0.09526124  0.64017486     0.37300
N2011       N  0.80767315  0.10908169  0.64197963    -0.89300
H2012       H  0.84433188  0.10739300  0.67588223     0.18400
H2013       H  0.86388480  0.05745896  0.60109509     0.18400
N2014       N  0.89972122  0.05425232  0.63457336    -0.88300
H2015       H  0.81186560  0.12778723  0.64521204     0.35800
H2016       H  0.79810500  0.10242396  0.65737863     0.40900
H2017       H  0.90237223  0.04344296  0.65061006     0.40500
H2018       H  0.91499147  0.06599329  0.63238638     0.35400
C2019       C  0.77863468  0.35322461  0.92048233    -0.26300
C2020       C  0.76494212  0.37505288  0.91412049    -0.14400
C2021       C  0.74390267  0.37306300  0.89791920     0.36200
C2022       C  0.73802178  0.34962778  0.88752215    -0.25800
C2023       C  0.75257478  0.32784527  0.89301235    -0.15000
C2024       C  0.77310821  0.33011731  0.90988275     0.37300
N2025       N  0.78948313  0.30921071  0.91536916    -0.89300
H2026       H  0.79481830  0.35414856  0.93293979     0.18400
H2027       H  0.72286315  0.34911856  0.87399868     0.18400
N2028       N  0.72921476  0.39489881  0.89117260    -0.88300
H2029       H  0.78959410  0.30624990  0.93456518     0.35800
H2030       H  0.80772463  0.31372588  0.91017189     0.40900
H2031       H  0.72015869  0.40113880  0.90712095     0.40500
H2032       H  0.71497749  0.39043142  0.87834925     0.35400
C2033       C  0.01308997  0.50356832  0.75488760    -0.26300
C2034       C  0.98891350  0.50856919  0.76414051    -0.14400
C2035       C  0.98378851  0.53239574  0.77424186     0.36200
C2036       C  0.00332954  0.54948493  0.77729219    -0.25800
C2037       C  0.02818468  0.54326238  0.77078185    -0.15000
C2038       C  0.03272333  0.52052272  0.75827040     0.37300
N2039       N  0.05747626  0.51387713  0.75010638    -0.89300
H2040       H  0.01740289  0.48558613  0.74667782     0.18400
H2041       H  0.99923927  0.56705843  0.78641761     0.18400
N2042       N  0.95914829  0.53888054  0.78283176    -0.88300
H2043       H  0.05648617  0.51058744  0.73099237     0.35800
H2044       H  0.06305269  0.49721056  0.75889270     0.40900
H2045       H  0.95297970  0.55502969  0.77348636     0.40500
H2046       H  0.96056564  0.54302449  0.80176944     0.35400
C2047       C  0.99684096  0.40234577  0.86056791    -0.26300
C2048       C  0.99955074  0.40303887  0.83467041    -0.14400
C2049       C  0.01679668  0.38636594  0.82345986     0.36200
C2050       C  0.03013388  0.36888692  0.83806929    -0.25800
C2051       C  0.02696247  0.36767698  0.86384801    -0.15000
C2052       C  0.01037479  0.38499977  0.87524946     0.37300
N2053       N  0.00610164  0.38491493  0.90143417    -0.89300
H2054       H  0.98367404  0.41500588  0.86947538     0.18400
H2055       H  0.04296459  0.35598613  0.82901689     0.18400
N2056       N  0.02032650  0.38645528  0.79713906    -0.88300
H2057       H  0.02303036  0.38864978  0.91072399     0.35800
H2058       H  0.99999641  0.36724582  0.90660061     0.40900
H2059       H  0.01582110  0.36883235  0.79027124     0.40500
H2060       H  0.03938039  0.38941978  0.79383131     0.35400
C2061       C  0.91820533  0.33264784  0.74883626    -0.26300
C2062       C  0.89176318  0.33122208  0.74750351    -0.14400
C2063       C  0.87759371  0.35398429  0.74699124     0.36200
C2064       C  0.88967579  0.37694934  0.74941648    -0.25800
C2065       C  0.91582088  0.37803944  0.75270275    -0.15000
C2066       C  0.93021136  0.35566361  0.75152663     0.37300
N2067       N  0.95713529  0.35612403  0.75345797    -0.89300
H2068       H  0.93002867  0.31611847  0.74842676     0.18400
H2069       H  0.87828745  0.39390504  0.75024152     0.18400
N2070       N  0.85066153  0.35385444  0.74487703    -0.88300
H2071       H  0.96449347  0.34792266  0.73747831     0.35800
H2072       H  0.96283468  0.34518298  0.76871125     0.40900
H2073       H  0.84525405  0.36426961  0.72917975     0.40500
H2074       H  0.84325755  0.36274679  0.76047865     0.35400
C2075       C  0.86126649  0.45676735  0.83396808    -0.26300
C2076       C  0.88631653  0.46238254  0.84042429    -0.14400
C2077       C  0.89161803  0.47039634  0.86502953     0.36200
C2078       C  0.87253283  0.47085303  0.88258878    -0.25800
C2079       C  0.84801822  0.46315958  0.87669076    -0.15000
C2080       C  0.84207174  0.45711006  0.85175192     0.37300
N2081       N  0.81685984  0.45051973  0.84465651    -0.89300
H2082       H  0.85673823  0.45114539  0.81513524     0.18400
H2083       H  0.87740994  0.47609087  0.90146341     0.18400
N2084       N  0.91624712  0.47757130  0.87318224    -0.88300
H2085       H  0.81583673  0.44594816  0.82581583     0.35800
H2086       H  0.80538812  0.46639630  0.84692080     0.40900
H2087       H  0.92241698  0.49189198  0.86171226     0.40500
H2088       H  0.92853471  0.46216860  0.87219096     0.35400
C2089       C  0.97875889  0.27244490  0.97233415    -0.26300
C2090       C  0.98541946  0.28044827  0.99638140    -0.14400
C2091       C  0.01123582  0.28464227  0.00187503     0.36200
C2092       C  0.02906274  0.28262722  0.98303253    -0.25800
C2093       C  0.02187299  0.27713813  0.95846386    -0.15000
C2094       C  0.99666232  0.27066634  0.95338657     0.37300
N2095       N  0.98912819  0.26329219  0.92876110    -0.89300
H2096       H  0.95922690  0.26863681  0.96794565     0.18400
H2097       H  0.04835113  0.28756838  0.98728068     0.18400
N2098       N  0.01983686  0.29267639  0.02584856    -0.88300
H2099       H  0.96983316  0.25944845  0.92801909     0.35800
H2100       H  0.99863229  0.24663153  0.92478999     0.40900
H2101       H  0.01516862  0.27924457  0.03898029     0.40500
H2102       H  0.01091484  0.30965936  0.03009359     0.35400
C2103       C  0.89506460  0.38554122  0.99384044    -0.26300
C2104       C  0.88596475  0.37305707  0.01465842    -0.14400
C2105       C  0.86199226  0.37972991  0.02375040     0.36200
C2106       C  0.84696348  0.39734584  0.01088102    -0.25800
C2107       C  0.85537176  0.40860916  0.98905549    -0.15000
C2108       C  0.88012699  0.40338630  0.98112095     0.37300
N2109       N  0.88992025  0.41537962  0.95964334    -0.89300
H2110       H  0.91364157  0.38097280  0.98695649     0.18400
H2111       H  0.82815916  0.40137343  0.01747804     0.18400
N2112       N  0.85223322  0.36781424  0.04530338    -0.88300
H2113       H  0.89485149  0.40160748  0.94680234     0.35800
H2114       H  0.90630431  0.42460055  0.96500420     0.40900
H2115       H  0.83550476  0.35906242  0.04020068     0.40500
H2116       H  0.84793014  0.38162568  0.05832435     0.35400
C2117       C  0.98255818  0.50772236  0.24427081    -0.26300
C2118       C  0.98757514  0.48502147  0.23202382    -0.14400
C2119       C  0.01276883  0.47970453  0.22503798     0.36200
C2120       C  0.03114422  0.49799039  0.22773273    -0.25800
C2121       C  0.02538874  0.52171502  0.23740287    -0.15000
C2122       C  0.00105271  0.52593705  0.24714325     0.37300
N2123       N  0.99401666  0.54895350  0.25880914    -0.89300
H2124       H  0.96367086  0.51205522  0.25045891     0.18400
H2125       H  0.04983257  0.49403413  0.22079184     0.18400
N2126       N  0.02025278  0.45643248  0.21414165    -0.88300
H2127       H  0.99571827  0.56350321  0.24602866     0.35800
H2128       H  0.00623081  0.55185169  0.27389343     0.40900
H2129       H  0.01088854  0.45437360  0.19713624     0.40500
H2130       H  0.01546282  0.44194965  0.22617478     0.35400
C2131       C  0.83048517  0.43251794  0.21899847    -0.26300
C2132       C  0.85210933  0.42658676  0.23337590    -0.14400
C2133       C  0.84921284  0.41253352  0.25515722     0.36200
C2134       C  0.82574202  0.40211704  0.26035768    -0.25800
C2135       C  0.80486878  0.40460403  0.24370237    -0.15000
C2136       C  0.80712671  0.42201804  0.22388322     0.37300
N2137       N  0.78636601  0.42924183  0.20790688    -0.89300
H2138       H  0.83187276  0.44452847  0.20289022     0.18400
H2139       H  0.82476956  0.39151261  0.27726691     0.18400
N2140       N  0.87012195  0.40826167  0.27185599    -0.88300
H2141       H  0.77233022  0.43771944  0.21847695     0.35800
H2142       H  0.77915104  0.41377918  0.19874427     0.40900
H2143       H  0.87316103  0.38900335  0.27348842     0.40500
H2144       H  0.86517873  0.41512576  0.28931052     0.35400
C2145       C  0.96192578  0.38762331  0.13039070    -0.26300
C2146       C  0.94739494  0.38230097  0.15130611    -0.14400
C2147       C  0.93652218  0.35849269  0.15323494     0.36200
C2148       C  0.93871886  0.34155061  0.13341873    -0.25800
C2149       C  0.95112200  0.34795533  0.11154074    -0.15000
C2150       C  0.96385605  0.37074465  0.11058824     0.37300
N2151       N  0.97807084  0.37722437  0.08921380    -0.89300
H2152       H  0.97087795  0.40553977  0.12878389     0.18400
H2153       H  0.92902512  0.32398026  0.13437889     0.18400
N2154       N  0.92173589  0.35220149  0.17437887    -0.88300
H2155       H  0.99658457  0.38051212  0.09504788     0.35800
H2156       H  0.97051628  0.39385508  0.08184909     0.40900
H2157       H  0.93399530  0.35074691  0.18969099     0.40500
H2158       H  0.91377601  0.33461803  0.17213593     0.35400
C2159       C  0.74161507  0.31596399  0.16456150    -0.26300
C2160       C  0.76149760  0.29830449  0.16474930    -0.14400
C2161       C  0.77936092  0.29843733  0.18432798     0.36200
C2162       C  0.77791651  0.31681095  0.20269953    -0.25800
C2163       C  0.75881609  0.33519088  0.20200594    -0.15000
C2164       C  0.74017232  0.33459275  0.18307100     0.37300
N2165       N  0.72033746  0.35318675  0.18239080    -0.89300
H2166       H  0.72787438  0.31582479  0.14947587     0.18400
H2167       H  0.79211006  0.31702814  0.21739483     0.18400
N2168       N  0.79915686  0.27994683  0.18547907    -0.88300
H2169       H  0.70819876  0.35016181  0.16726702     0.35800
H2170       H  0.72857082  0.37049342  0.17945391     0.40900
H2171       H  0.79779398  0.27031971  0.20228742     0.40500
H2172       H  0.81636160  0.28910988  0.18556616     0.35400
C2173       C  0.85961077  0.26392885  0.09535970    -0.26300
C2174       C  0.85944780  0.27005768  0.07008951    -0.14400
C2175       C  0.83613688  0.27114927  0.05721449     0.36200
C2176       C  0.81362100  0.26696006  0.06989557    -0.25800
C2177       C  0.81337885  0.26237033  0.09576620    -0.15000
C2178       C  0.83733426  0.26046168  0.10835207     0.37300
N2179       N  0.84021601  0.25591203  0.13452424    -0.89300
H2180       H  0.87729726  0.26322224  0.10569515     0.18400
H2181       H  0.79647397  0.26842403  0.05905066     0.18400
N2182       N  0.83504469  0.27717177  0.03128760    -0.88300
H2183       H  0.83420341  0.23806416  0.13905280     0.35800
H2184       H  0.83052411  0.26935331  0.14460995     0.40900
H2185       H  0.82381654  0.29327050  0.02897007     0.40500
H2186       H  0.82622560  0.26258164  0.02192837     0.35400
C2187       C  0.50305862  0.28997963  0.48170570    -0.26300
C2188       C  0.52748435  0.28266023  0.48949693    -0.14400
C2189       C  0.53118861  0.27444921  0.51430919     0.36200
C2190       C  0.51120124  0.27632701  0.53117778    -0.25800
C2191       C  0.48737456  0.28606799  0.52397100    -0.15000
C2192       C  0.48315370  0.29185936  0.49847064     0.37300
N2193       N  0.45923333  0.30064085  0.48900795    -0.89300
H2194       H  0.49964505  0.29587442  0.46266998     0.18400
H2195       H  0.51469082  0.27118972  0.55040873     0.18400
N2196       N  0.55542101  0.26502898  0.52258991    -0.88300
H2197       H  0.45483026  0.31782881  0.49712403     0.35800
H2198       H  0.44559081  0.28765448  0.49349550     0.40900
H2199       H  0.55908412  0.24854677  0.51286796     0.40500
H2200       H  0.55510737  0.26018672  0.54141407     0.35400
C2201       C  0.62784579  0.38238357  0.48855230    -0.26300
C2202       C  0.63573184  0.35732815  0.48618371    -0.14400
C2203       C  0.65950710  0.34966306  0.49599264     0.36200
C2204       C  0.67465741  0.36716076  0.50793634    -0.25800
C2205       C  0.66644928  0.39194643  0.51097785    -0.15000
C2206       C  0.64293114  0.39979778  0.50092876     0.37300
N2207       N  0.63451112  0.42532857  0.50318253    -0.89300
H2208       H  0.60978793  0.38842036  0.48079602     0.18400
H2209       H  0.69271037  0.36110756  0.51571080     0.18400
N2210       N  0.66840087  0.32427265  0.49371464    -0.88300
H2211       H  0.61665839  0.42789634  0.49501059     0.35800
H2212       H  0.64679675  0.43631436  0.49307957     0.40900
H2213       H  0.65768647  0.31339822  0.50554045     0.40500
H2214       H  0.68702584  0.32237355  0.50015550     0.35400
C2215       C  0.53412483  0.52408554  0.25818629    -0.26300
C2216       C  0.52997133  0.49990294  0.26730970    -0.14400
C2217       C  0.50557991  0.49435089  0.27559863     0.36200
C2218       C  0.48697781  0.51339517  0.27702287    -0.25800
C2219       C  0.49200944  0.53818692  0.27034890    -0.15000
C2220       C  0.51552087  0.54313211  0.25960511     0.37300
N2221       N  0.52127919  0.56778601  0.25144854    -0.89300
H2222       H  0.55249788  0.52875246  0.25128313     0.18400
H2223       H  0.46894273  0.50895818  0.28485999     0.18400
N2224       N  0.49994529  0.46978471  0.28409234    -0.88300
H2225       H  0.52599779  0.56685602  0.23270299     0.35800
H2226       H  0.53709995  0.57372056  0.26146021     0.40900
H2227       H  0.48465046  0.46336800  0.27359942     0.40500
H2228       H  0.49443982  0.47102134  0.30260049     0.35400
C2229       C  0.66991236  0.39310719  0.27415896    -0.26300
C2230       C  0.66065663  0.41400461  0.26082057    -0.14400
C2231       C  0.67579706  0.42403463  0.24203384     0.36200
C2232       C  0.69997443  0.41348006  0.23774803    -0.25800
C2233       C  0.70941758  0.39291636  0.25156882    -0.15000
C2234       C  0.69376565  0.38255173  0.26986514     0.37300
N2235       N  0.70194529  0.36244568  0.28573642    -0.89300
H2236       H  0.65876878  0.38524467  0.28882230     0.18400
H2237       H  0.71173857  0.42161161  0.22374034     0.18400
N2238       N  0.66723581  0.44561969  0.22823996    -0.88300
H2239       H  0.71911059  0.36730487  0.29438962     0.35800
H2240       H  0.70435451  0.34641414  0.27545157     0.40900
H2241       H  0.65189518  0.44027958  0.21722509     0.40500
H2242       H  0.68108908  0.45137509  0.21600755     0.35400
C2243       C  0.58277540  0.37303801  0.34015288    -0.26300
C2244       C  0.57522662  0.39744586  0.34637268    -0.14400
C2245       C  0.56667714  0.40220636  0.37070164     0.36200
C2246       C  0.56652784  0.38282549  0.38815260    -0.25800
C2247       C  0.57530600  0.35865868  0.38231902    -0.15000
C2248       C  0.58311528  0.35365205  0.35779442     0.37300
N2249       N  0.59243733  0.32928616  0.35103905    -0.89300
H2250       H  0.58957301  0.36924951  0.32165567     0.18400
H2251       H  0.56033455  0.38703140  0.40677808     0.18400
N2252       N  0.55812147  0.42644689  0.37838445    -0.88300
H2253       H  0.59882510  0.32921203  0.33282996     0.35800
H2254       H  0.57719799  0.31717142  0.35138817     0.40900
H2255       H  0.54398861  0.43271640  0.36600923     0.40500
H2256       H  0.57316619  0.43868683  0.37801276     0.35400
C2257       C  0.75433527  0.30687285  0.27457773    -0.26300
C2258       C  0.76057458  0.33056778  0.28354494    -0.14400
C2259       C  0.76261307  0.33434246  0.30959348     0.36200
C2260       C  0.75744870  0.31476964  0.32577162    -0.25800
C2261       C  0.75108129  0.29124972  0.31673454    -0.15000
C2262       C  0.74987411  0.28715098  0.29086566     0.37300
N2263       N  0.74340617  0.26342913  0.28064668    -0.89300
H2264       H  0.75287465  0.30366378  0.25474602     0.18400
H2265       H  0.75853813  0.31789965  0.34563917     0.18400
N2266       N  0.76907874  0.35784844  0.32036654    -0.88300
H2267       H  0.72609632  0.25820796  0.28776061     0.35800
H2268       H  0.75714042  0.25029230  0.28623454     0.40900
H2269       H  0.75754828  0.37208029  0.31259361     0.40500
H2270       H  0.78777128  0.36150046  0.31685899     0.35400
C2271       C  0.69743504  0.25352440  0.40784640    -0.26300
C2272       C  0.69713159  0.25218499  0.38164029    -0.14400
C2273       C  0.67305358  0.25441566  0.36937926     0.36200
C2274       C  0.65139906  0.26024856  0.38298502    -0.25800
C2275       C  0.65248112  0.26374731  0.40874745    -0.15000
C2276       C  0.67563292  0.25933481  0.42128109     0.37300
N2277       N  0.67727933  0.26105689  0.44780164    -0.89300
H2278       H  0.71451551  0.25075791  0.41856214     0.18400
H2279       H  0.63368809  0.26317637  0.37302567     0.18400
N2280       N  0.66959449  0.25122892  0.34310314    -0.88300
H2281       H  0.69046572  0.27460821  0.45238551     0.35800
H2282       H  0.68399885  0.24391048  0.45472562     0.40900
H2283       H  0.67498490  0.23314956  0.33811711     0.40500
H2284       H  0.67997817  0.26414523  0.33331068     0.35400
C2285       C  0.02020769  0.01720777  0.26273579    -0.26300
C2286       C  0.99502959  0.00976740  0.26048456    -0.14400
C2287       C  0.99022139  0.98397142  0.25759800     0.36200
C2288       C  0.01015258  0.96648874  0.25921729    -0.25800
C2289       C  0.03500421  0.97383741  0.26416455    -0.15000
C2290       C  0.04012563  0.99959424  0.26454153     0.37300
N2291       N  0.06536601  0.00805226  0.26788237    -0.89300
H2292       H  0.02442424  0.03682910  0.26452769     0.18400
H2293       H  0.00575667  0.94684260  0.25851871     0.18400
N2294       N  0.96523495  0.97465028  0.25484824    -0.88300
H2295       H  0.06606739  0.01899127  0.28393118     0.35800
H2296       H  0.06958667  0.01940446  0.25276999     0.40900
H2297       H  0.95682814  0.98264474  0.23899145     0.40500
H2298       H  0.95487110  0.97962619  0.27048085     0.35400
C2299       C  0.96782100  0.25147472  0.49196225    -0.26300
C2300       C  0.97577909  0.24258747  0.46877337    -0.14400
C2301       C  0.00180671  0.23815397  0.46539497     0.36200
C2302       C  0.01876916  0.24021195  0.48562525    -0.25800
C2303       C  0.01048590  0.24691243  0.50941773    -0.15000
C2304       C  0.98481367  0.25383764  0.51222489     0.37300
N2305       N  0.97566582  0.26170687  0.53597647    -0.89300
H2306       H  0.94797217  0.25527531  0.49477302     0.18400
H2307       H  0.03842083  0.23534909  0.48289604     0.18400
N2308       N  0.01109461  0.23064747  0.44168323    -0.88300
H2309       H  0.95618322  0.26489774  0.53518579     0.35800
H2310       H  0.98372531  0.27890137  0.53998949     0.40900
H2311       H  0.02027811  0.21333424  0.44378827     0.40500
H2312       H  0.02437566  0.24360605  0.43615998     0.35400
C2313       C  0.89431156  0.14600359  0.48822799    -0.26300
C2314       C  0.88686257  0.14939980  0.46332350    -0.14400
C2315       C  0.86483586  0.13758814  0.45438770     0.36200
C2316       C  0.85007504  0.12434167  0.47083306    -0.25800
C2317       C  0.85646356  0.12276953  0.49616090    -0.15000
C2318       C  0.87939236  0.13279405  0.50468518     0.37300
N2319       N  0.88702885  0.13082030  0.53026066    -0.89300
H2320       H  0.91125006  0.15464167  0.49532014     0.18400
H2321       H  0.83270874  0.11639360  0.46392085     0.18400
N2322       N  0.85600930  0.13987723  0.42919079    -0.88300
H2323       H  0.88882268  0.14885191  0.53738039     0.35800
H2324       H  0.90474062  0.12201284  0.53111576     0.40900
H2325       H  0.86982313  0.13257774  0.41746680     0.40500
H2326       H  0.85276282  0.15868849  0.42508788     0.35400
C2327       C  0.83974885  0.25259088  0.37690329    -0.26300
C2328       C  0.84393594  0.23601367  0.39688684    -0.14400
C2329       C  0.82286428  0.22422891  0.40726641     0.36200
C2330       C  0.79862523  0.22885198  0.39740768    -0.25800
C2331       C  0.79445491  0.24512624  0.37728545    -0.15000
C2332       C  0.81528136  0.25739844  0.36722728     0.37300
N2333       N  0.81168750  0.27523989  0.34761674    -0.89300
H2334       H  0.85552373  0.26187555  0.36866930     0.18400
H2335       H  0.78299326  0.21899408  0.40524616     0.18400
N2336       N  0.82585163  0.20696265  0.42749040    -0.88300
H2337       H  0.82245365  0.26939658  0.33255469     0.35800
H2338       H  0.81857960  0.29233513  0.35375455     0.40900
H2339       H  0.81842984  0.18990354  0.42190287     0.40500
H2340       H  0.81518726  0.21362314  0.44230266     0.35400
C2341       C  0.96682361  0.14920045  0.35993629    -0.26300
C2342       C  0.94751250  0.16724939  0.35694727    -0.14400
C2343       C  0.93247490  0.16714195  0.33513486     0.36200
C2344       C  0.93580337  0.14808354  0.31761716    -0.25800
C2345       C  0.95337964  0.12859700  0.32186135    -0.15000
C2346       C  0.96988864  0.12992222  0.34258470     0.37300
N2347       N  0.98914817  0.11121520  0.34657649    -0.89300
H2348       H  0.97869476  0.14924094  0.37650050     0.18400
H2349       H  0.92288402  0.14729740  0.30186236     0.18400
N2350       N  0.91221325  0.18490681  0.33179287    -0.88300
H2351       H  0.98619208  0.10280731  0.36379062     0.35800
H2352       H  0.00650084  0.12009188  0.34746734     0.40900
H2353       H  0.89537701  0.17515231  0.33042770     0.40500
H2354       H  0.91478393  0.19420810  0.31497885     0.35400
C2355       C  0.74615178  0.18250334  0.18235360    -0.26300
C2356       C  0.76798272  0.17923028  0.19723635    -0.14400
C2357       C  0.78786348  0.19603650  0.19470669     0.36200
C2358       C  0.78641970  0.21456386  0.17641663    -0.25800
C2359       C  0.76528600  0.21708790  0.16059745    -0.15000
C2360       C  0.74464791  0.20131993  0.16390538     0.37300
N2361       N  0.72271679  0.20394747  0.14807714    -0.89300
H2362       H  0.73074189  0.16974363  0.18443538     0.18400
H2363       H  0.80211530  0.22699787  0.17441104     0.18400
N2364       N  0.80956510  0.19446803  0.21082758    -0.88300
H2365       H  0.70928663  0.19079624  0.15282255     0.35800
H2366       H  0.72813803  0.19988833  0.12995065     0.40900
H2367       H  0.81123300  0.21152682  0.22003518     0.40500
H2368       H  0.82546247  0.19188535  0.19987066     0.35400
C2369       C  0.73643709  0.17501388  0.28574504    -0.26300
C2370       C  0.76148210  0.17048843  0.27893078    -0.14400
C2371       C  0.78059026  0.18480196  0.29040794     0.36200
C2372       C  0.77449219  0.20123943  0.30953953    -0.25800
C2373       C  0.74942769  0.20597393  0.31637747    -0.15000
C2374       C  0.73016962  0.19292616  0.30374903     0.37300
N2375       N  0.70415683  0.19844278  0.30813574    -0.89300
H2376       H  0.72141002  0.16512501  0.27658994     0.18400
H2377       H  0.78985379  0.21064805  0.31872073     0.18400
N2378       N  0.80597555  0.18497455  0.28177085    -0.88300
H2379       H  0.69560430  0.18199063  0.31373013     0.35800
H2380       H  0.69570137  0.20422566  0.29137484     0.40900
H2381       H  0.80575346  0.18718844  0.26248258     0.40500
H2382       H  0.81539805  0.16847170  0.28677124     0.35400
C2383       C  0.81675821  0.08891512  0.25890122    -0.26300
C2384       C  0.81512903  0.10415190  0.23756533    -0.14400
C2385       C  0.83612258  0.10353952  0.22136994     0.36200
C2386       C  0.85911228  0.09228675  0.22941679    -0.25800
C2387       C  0.86130080  0.07971898  0.25221498    -0.15000
C2388       C  0.83938962  0.07700131  0.26641760     0.37300
N2389       N  0.84015375  0.06315537  0.28920581    -0.89300
H2390       H  0.80062204  0.08752532  0.27085113     0.18400
H2391       H  0.87544990  0.09327176  0.21769999     0.18400
N2392       N  0.83411296  0.11305647  0.19649465    -0.88300
H2393       H  0.82692607  0.04900569  0.28784919     0.35800
H2394       H  0.83476526  0.07513285  0.30354946     0.40900
H2395       H  0.82091785  0.10230824  0.18694961     0.40500
H2396       H  0.85114380  0.11089023  0.18718899     0.35400
C2397       C  0.51528874  0.27127317  0.96829481    -0.26300
C2398       C  0.49123895  0.26247039  0.97390489    -0.14400
C2399       C  0.48559986  0.25793353  0.99911493     0.36200
C2400       C  0.50494792  0.25876438  0.01730569    -0.25800
C2401       C  0.52976726  0.26452866  0.01111245    -0.15000
C2402       C  0.53442644  0.27260752  0.98664407     0.37300
N2403       N  0.55887143  0.28092263  0.97994265    -0.89300
H2404       H  0.51980642  0.27574231  0.94927127     0.18400
H2405       H  0.50088407  0.25332988  0.03618253     0.18400
N2406       N  0.46065933  0.25104744  0.00606132    -0.88300
H2407       H  0.55689324  0.29904944  0.97286839     0.35800
H2408       H  0.56557960  0.26942433  0.96576513     0.40900
H2409       H  0.44872996  0.26643670  0.00250051     0.40500
H2410       H  0.45988583  0.24761931  0.02513505     0.35400
C2411       C  0.62247651  0.17849093  0.98235146    -0.26300
C2412       C  0.62207343  0.17360959  0.00793259    -0.14400
C2413       C  0.63674075  0.15334453  0.01758852     0.36200
C2414       C  0.65284541  0.14009662  0.00192865    -0.25800
C2415       C  0.65520852  0.14675653  0.97684354    -0.15000
C2416       C  0.63901404  0.16570501  0.96683788     0.37300
N2417       N  0.63932965  0.17312487  0.94128176    -0.89300
H2418       H  0.61092118  0.19348660  0.97445865     0.18400
H2419       H  0.66460793  0.12530089  0.00989076     0.18400
N2420       N  0.63674985  0.14639828  0.04329392    -0.88300
H2421       H  0.63618859  0.15754835  0.93017559     0.35800
H2422       H  0.65690299  0.18063568  0.93740116     0.40900
H2423       H  0.61835772  0.14225596  0.04828345     0.40500
H2424       H  0.64329695  0.16126707  0.05396388     0.35400
C2425       C  0.68517155  0.24656058  0.06766480    -0.26300
C2426       C  0.66505439  0.25751234  0.08066780    -0.14400
C2427       C  0.67068654  0.27065391  0.10284548     0.36200
C2428       C  0.69576032  0.27187610  0.11158438    -0.25800
C2429       C  0.71565640  0.25998153  0.09903586    -0.15000
C2430       C  0.71008590  0.24704903  0.07676776     0.37300
N2431       N  0.72944586  0.23336360  0.06395845    -0.89300
H2432       H  0.68136852  0.23628091  0.05076331     0.18400
H2433       H  0.69964069  0.28207855  0.12851136     0.18400
N2434       N  0.65151766  0.28281337  0.11704086    -0.88300
H2435       H  0.72228406  0.22511119  0.04781853     0.35800
H2436       H  0.73568696  0.21880933  0.07560315     0.40900
H2437       H  0.63915017  0.26940341  0.12343174     0.40500
H2438       H  0.64167646  0.29546242  0.10550619     0.35400
C2439       C  0.54645755  0.00819878  0.23890668    -0.26300
C2440       C  0.53889230  0.03199351  0.23021249    -0.14400
C2441       C  0.51285012  0.03766997  0.22830764     0.36200
C2442       C  0.49521319  0.01892467  0.23228664    -0.25800
C2443       C  0.50291979  0.99435358  0.23804354    -0.15000
C2444       C  0.52879606  0.98937468  0.24272526     0.37300
N2445       N  0.53750689  0.96480212  0.24950705    -0.89300
H2446       H  0.56631169  0.00350745  0.24098964     0.18400
H2447       H  0.47541847  0.02328580  0.22908946     0.18400
N2448       N  0.50412774  0.06211166  0.22112885    -0.88300
H2449       H  0.54754791  0.96603006  0.26630563     0.35800
H2450       H  0.54993371  0.95847439  0.23593470     0.40900
H2451       H  0.49240459  0.06896058  0.23505582     0.40500
H2452       H  0.49331899  0.06052029  0.20482610     0.35400
C2453       C  0.68936315  0.09104655  0.20123088    -0.26300
C2454       C  0.66994456  0.09726113  0.21773649    -0.14400
C2455       C  0.67581807  0.11169741  0.23884887     0.36200
C2456       C  0.70064950  0.11981208  0.24281114    -0.25800
C2457       C  0.71984766  0.11380685  0.22607948    -0.15000
C2458       C  0.71402365  0.09925036  0.20514165     0.37300
N2459       N  0.73293574  0.09346003  0.18728916    -0.89300
H2460       H  0.68533874  0.08024147  0.18469975     0.18400
H2461       H  0.70495664  0.13057257  0.25921346     0.18400
N2462       N  0.65680165  0.11798456  0.25642104    -0.88300
H2463       H  0.72685871  0.10060751  0.17008734     0.35800
H2464       H  0.73441281  0.07405150  0.18576601     0.40900
H2465       H  0.65564224  0.13742539  0.25774594     0.40500
H2466       H  0.66259923  0.11093770  0.27374948     0.35400
C2467       C  0.55670644  0.14200421  0.13054957    -0.26300
C2468       C  0.57042565  0.14454378  0.15291234    -0.14400
C2469       C  0.58186868  0.16763444  0.15815870     0.36200
C2470       C  0.58138666  0.18655334  0.13996490    -0.25800
C2471       C  0.56955967  0.18304454  0.11675703    -0.15000
C2472       C  0.55618815  0.16092247  0.11253120     0.37300
N2473       N  0.54260948  0.15721758  0.08966795    -0.89300
H2474       H  0.54735393  0.12468677  0.12634978     0.18400
H2475       H  0.59150567  0.20358354  0.14346443     0.18400
N2476       N  0.59502406  0.17142862  0.18134035    -0.88300
H2477       H  0.52378322  0.15406663  0.09385400     0.35800
H2478       H  0.54989010  0.14116409  0.08119348     0.40900
H2479       H  0.58164666  0.17129271  0.19535465     0.40500
H2480       H  0.60312025  0.18905681  0.18183315     0.35400
C2481       C  0.78331703  0.53097451  0.97657729    -0.26300
C2482       C  0.77336455  0.50779735  0.98308355    -0.14400
C2483       C  0.76336132  0.50492574  0.00710103     0.36200
C2484       C  0.76650112  0.52401090  0.02484223    -0.25800
C2485       C  0.77942046  0.54589815  0.01911675    -0.15000
C2486       C  0.78654088  0.54987907  0.99431380     0.37300
N2487       N  0.79807763  0.57269026  0.98721748    -0.89300
H2488       H  0.79052315  0.53384645  0.95810605     0.18400
H2489       H  0.76040874  0.52095611  0.04368473     0.18400
N2490       N  0.75119562  0.48221299  0.01380232    -0.88300
H2491       H  0.78716010  0.58080298  0.97291998     0.35800
H2492       H  0.81585558  0.56835748  0.98017053     0.40900
H2493       H  0.73492383  0.48090355  0.00272920     0.40500
H2494       H  0.74527482  0.48294036  0.03221244     0.35400
C2495       C  0.86907510  0.50735334  0.10731932    -0.26300
C2496       C  0.86832429  0.53261689  0.11401697    -0.14400
C2497       C  0.88186708  0.54044135  0.13525647     0.36200
C2498       C  0.89508414  0.52287057  0.14986441    -0.25800
C2499       C  0.89502030  0.49743001  0.14383802    -0.15000
C2500       C  0.88248144  0.48973594  0.12188464     0.37300
N2501       N  0.88290084  0.46408338  0.11447190    -0.89300
H2502       H  0.85882578  0.50115913  0.09096310     0.18400
H2503       H  0.90461656  0.52917883  0.16658623     0.18400
N2504       N  0.88112283  0.56602085  0.14291979    -0.88300
H2505       H  0.89062235  0.46297994  0.09676952     0.35800
H2506       H  0.86432184  0.45803489  0.11325282     0.40900
H2507       H  0.89961737  0.57233332  0.14393942     0.40500
H2508       H  0.87362452  0.56686941  0.16073218     0.35400
C2509       C  0.79668222  0.59850373  0.17382269    -0.26300
C2510       C  0.78217647  0.60566166  0.15283931    -0.14400
C2511       C  0.76209663  0.62278685  0.15596079     0.36200
C2512       C  0.75791749  0.63359154  0.17934595    -0.25800
C2513       C  0.77371570  0.62801606  0.20011209    -0.15000
C2514       C  0.79293092  0.60965840  0.19707740     0.37300
N2515       N  0.80971286  0.60324088  0.21729925    -0.89300
H2516       H  0.81220711  0.58527289  0.17194683     0.18400
H2517       H  0.74300784  0.64739768  0.18022976     0.18400
N2518       N  0.74622900  0.62989174  0.13527961    -0.88300
H2519       H  0.82807572  0.60712194  0.21198535     0.35800
H2520       H  0.80863187  0.58404600  0.22046449     0.40900
H2521       H  0.74735560  0.64919614  0.13290193     0.40500
H2522       H  0.72765982  0.62578317  0.13968238     0.35400
C2523       C  0.03342329  0.76371898  0.04000257    -0.26300
C2524       C  0.00822741  0.75748440  0.03494845    -0.14400
C2525       C  0.00072903  0.75428574  0.00985576     0.36200
C2526       C  0.01866029  0.75514429  0.99089724    -0.25800
C2527       C  0.04431842  0.75905329  0.99616373    -0.15000
C2528       C  0.05149780  0.76454588  0.02101634     0.37300
N2529       N  0.07733297  0.76952550  0.02724218    -0.89300
H2530       H  0.03944126  0.76661515  0.05907683     0.18400
H2531       H  0.01255763  0.75133633  0.97200877     0.18400
N2532       N  0.97507284  0.74912498  0.00347298    -0.88300
H2533       H  0.07963628  0.77220402  0.04636456     0.35800
H2534       H  0.08182054  0.78639823  0.01877765     0.40900
H2535       H  0.97466060  0.73195917  0.99429979     0.40500
H2536       H  0.96852034  0.76288887  0.99106383     0.35400
C2537       C  0.98870767  0.64923723  0.14672716    -0.26300
C2538       C  0.00242860  0.66464165  0.13089091    -0.14400
C2539       C  0.02870773  0.66060146  0.12907240     0.36200
C2540       C  0.04070200  0.64230590  0.14404036    -0.25800
C2541       C  0.02713831  0.62779518  0.16077271    -0.15000
C2542       C  0.00076913  0.63096228  0.16162393     0.37300
N2543       N  0.98612922  0.61593987  0.17776595    -0.89300
H2544       H  0.96851042  0.65184760  0.14819867     0.18400
H2545       H  0.06095819  0.63990479  0.14308131     0.18400
N2546       N  0.04326055  0.67528190  0.11239295    -0.88300
H2547       H  0.97285906  0.60654648  0.16691260     0.35800
H2548       H  0.97640826  0.62780822  0.18982102     0.40900
H2549       H  0.03752651  0.67081649  0.09430495     0.40500
H2550       H  0.06238125  0.67039694  0.11385148     0.35400
C2551       C  0.87374042  0.69186510  0.08226862    -0.26300
C2552       C  0.89634093  0.68855886  0.06939488    -0.14400
C2553       C  0.89846033  0.66856151  0.05242529     0.36200
C2554       C  0.87940050  0.65067943  0.05113732    -0.25800
C2555       C  0.85798888  0.65255124  0.06605773    -0.15000
C2556       C  0.85460467  0.67412773  0.08073683     0.37300
N2557       N  0.83252391  0.67742921  0.09536281    -0.89300
H2558       H  0.87154314  0.70738211  0.09496103     0.18400
H2559       H  0.88183487  0.63460111  0.03920021     0.18400
N2560       N  0.92030997  0.66599318  0.03717198    -0.88300
H2561       H  0.82384198  0.69437070  0.09022027     0.35800
H2562       H  0.83813924  0.67871031  0.11400884     0.40900
H2563       H  0.92043549  0.68141583  0.02525481     0.40500
H2564       H  0.91902271  0.65021678  0.02587584     0.35400
C2565       C  0.75650678  0.50358208  0.46663299    -0.26300
C2566       C  0.75164705  0.52901022  0.47117680    -0.14400
C2567       C  0.74618611  0.53649555  0.49573464     0.36200
C2568       C  0.74414442  0.51841791  0.51466755    -0.25800
C2569       C  0.74672542  0.49287995  0.50938809    -0.15000
C2570       C  0.75387836  0.48550065  0.48532568     0.37300
N2571       N  0.75726922  0.45945952  0.47967948    -0.89300
H2572       H  0.76090932  0.49755678  0.44798600     0.18400
H2573       H  0.73839340  0.52426087  0.53300486     0.18400
N2574       N  0.74079192  0.56214904  0.50121060    -0.88300
H2575       H  0.77255887  0.45274429  0.49033695     0.35800
H2576       H  0.76207145  0.45703589  0.46106439     0.40900
H2577       H  0.75323564  0.56773875  0.51527379     0.40500
H2578       H  0.72250462  0.56346949  0.50806796     0.35400
C2579       C  0.65273092  0.52726441  0.37328699    -0.26300
C2580       C  0.67636511  0.53269765  0.36351620    -0.14400
C2581       C  0.68237046  0.52438717  0.33941872     0.36200
C2582       C  0.66480014  0.51045204  0.32593042    -0.25800
C2583       C  0.64127798  0.50477167  0.33578737    -0.15000
C2584       C  0.63506326  0.51347712  0.35968825     0.37300
N2585       N  0.61094743  0.50836414  0.37011540    -0.89300
H2586       H  0.64801579  0.53371295  0.39171691     0.18400
H2587       H  0.66968647  0.50377092  0.30762673     0.18400
N2588       N  0.70613633  0.53018730  0.32858946    -0.88300
H2589       H  0.59727280  0.51786529  0.35933493     0.35800
H2590       H  0.60970040  0.51560717  0.38805569     0.40900
H2591       H  0.70637010  0.54950096  0.32578757     0.40500
H2592       H  0.70776694  0.52205013  0.31106241     0.35400
C2593       C  0.77769627  0.60133809  0.32752929    -0.26300
C2594       C  0.76156079  0.61413261  0.34384234    -0.14400
C2595       C  0.75065083  0.63714567  0.33584547     0.36200
C2596       C  0.75537152  0.64633567  0.31191729    -0.25800
C2597       C  0.77082528  0.63317483  0.29536227    -0.15000
C2598       C  0.78250425  0.61068952  0.30358140     0.37300
N2599       N  0.79953306  0.59740876  0.28781968    -0.89300
H2600       H  0.78635158  0.58372616  0.33319212     0.18400
H2601       H  0.74605302  0.66354003  0.30599581     0.18400
N2602       N  0.73390491  0.65092147  0.35152404    -0.88300
H2603       H  0.79273489  0.57940987  0.28524235     0.35800
H2604       H  0.81697584  0.59590712  0.29704041     0.40900
H2605       H  0.71650802  0.65284868  0.34228835     0.40500
H2606       H  0.74117390  0.66874342  0.35409344     0.35400
C2607       C  0.53225806  0.73715809  0.51009967    -0.26300
C2608       C  0.52726529  0.74647023  0.48605234    -0.14400
C2609       C  0.50400794  0.75914882  0.48141238     0.36200
C2610       C  0.48529992  0.75928410  0.49974427    -0.25800
C2611       C  0.48935965  0.74731163  0.52274699    -0.15000
C2612       C  0.51368749  0.73757550  0.52839758     0.37300
N2613       N  0.51942975  0.72720259  0.55241124    -0.89300
H2614       H  0.55022995  0.72813775  0.51441442     0.18400
H2615       H  0.46693929  0.76745186  0.49540768     0.18400
N2616       N  0.49892358  0.77079074  0.45775507    -0.88300
H2617       H  0.53462394  0.73685819  0.56003367     0.35800
H2618       H  0.52509830  0.70858169  0.55010569     0.40900
H2619       H  0.51141953  0.78549021  0.45599968     0.40500
H2620       H  0.48079581  0.77877089  0.45718342     0.35400
C2621       C  0.50713130  0.65536077  0.39434608    -0.26300
C2622       C  0.53144088  0.66068866  0.38625901    -0.14400
C2623       C  0.54032914  0.64903278  0.36437464     0.36200
C2624       C  0.52443898  0.63355757  0.35074999    -0.25800
C2625       C  0.49964224  0.62938110  0.35809307    -0.15000
C2626       C  0.49112062  0.63987465  0.38059213     0.37300
N2627       N  0.46594808  0.63578444  0.38892002    -0.89300
H2628       H  0.50025985  0.66383594  0.41123763     0.18400
H2629       H  0.53132814  0.62553963  0.33363814     0.18400
N2630       N  0.56492580  0.65315640  0.35482378    -0.88300
H2631       H  0.46232523  0.64596569  0.40506410     0.35800
H2632       H  0.46482604  0.61697064  0.39380773     0.40900
H2633       H  0.57839718  0.64737871  0.36809222     0.40500
H2634       H  0.56680311  0.67216304  0.35108675     0.35400
C2635       C  0.63327701  0.64409351  0.44830362    -0.26300
C2636       C  0.63818978  0.66926630  0.44321969    -0.14400
C2637       C  0.66286671  0.67591146  0.43686322     0.36200
C2638       C  0.68140514  0.65724903  0.43371709    -0.25800
C2639       C  0.67576241  0.63196016  0.43655461    -0.15000
C2640       C  0.65178328  0.62538079  0.44507503     0.37300
N2641       N  0.64610165  0.59969649  0.44979619    -0.89300
H2642       H  0.61454991  0.63876823  0.45364754     0.18400
H2643       H  0.69986753  0.66253848  0.42751568     0.18400
N2644       N  0.66897359  0.70141115  0.43236167    -0.88300
H2645       H  0.62755094  0.59802244  0.45570219     0.35800
H2646       H  0.65771586  0.59358494  0.46453183     0.40900
H2647       H  0.67533922  0.70288422  0.41415928     0.40500
H2648       H  0.68377669  0.70610402  0.44440078     0.35400
C2649       C  0.71838268  0.73945738  0.25473075    -0.26300
C2650       C  0.69518099  0.73174458  0.26398923    -0.14400
C2651       C  0.69094846  0.70578938  0.26660023     0.36200
C2652       C  0.71032413  0.68864244  0.26156930    -0.25800
C2653       C  0.73357833  0.69652734  0.25305766    -0.15000
C2654       C  0.73736514  0.72204716  0.24859583     0.37300
N2655       N  0.76007748  0.73011031  0.23717927    -0.89300
H2656       H  0.72167907  0.75911100  0.25194568     0.18400
H2657       H  0.70704287  0.66887646  0.26386469     0.18400
N2658       N  0.66683134  0.69602724  0.27248981    -0.88300
H2659       H  0.75991713  0.74948388  0.23510736     0.35800
H2660       H  0.76054838  0.72255086  0.21928195     0.40900
H2661       H  0.65306899  0.70449629  0.26104685     0.40500
H2662       H  0.66285967  0.69944755  0.29107183     0.35400
C2663       C  0.59611028  0.74451807  0.33842577    -0.26300
C2664       C  0.60073966  0.75747257  0.36059284    -0.14400
C2665       C  0.61802729  0.77706344  0.36041411     0.36200
C2666       C  0.63047829  0.78315111  0.33833682    -0.25800
C2667       C  0.62673554  0.76941000  0.31624819    -0.15000
C2668       C  0.60933767  0.74967341  0.31676364     0.37300
N2669       N  0.60589920  0.73384019  0.29560545    -0.89300
H2670       H  0.58333859  0.72898111  0.33823451     0.18400
H2671       H  0.64406617  0.79780927  0.33932945     0.18400
N2672       N  0.62347985  0.79051682  0.38273888    -0.88300
H2673       H  0.58683338  0.73447478  0.29043903     0.35800
H2674       H  0.61061036  0.71553713  0.30086560     0.40900
H2675       H  0.61945547  0.80941043  0.37944589     0.40500
H2676       H  0.64276775  0.78856426  0.38662364     0.35400
C2677       C  0.86146701  0.70764078  0.24427212    -0.26300
C2678       C  0.85466159  0.73078277  0.25433709    -0.14400
C2679       C  0.83023704  0.73470976  0.26319779     0.36200
C2680       C  0.81272514  0.71560619  0.26149999    -0.25800
C2681       C  0.81893019  0.69255907  0.25059699    -0.15000
C2682       C  0.84394047  0.68832169  0.24249801     0.37300
N2683       N  0.85176771  0.66424237  0.23343735    -0.89300
H2684       H  0.88072315  0.70442336  0.23855389     0.18400
H2685       H  0.79414961  0.71911906  0.26868455     0.18400
N2686       N  0.82333556  0.75797327  0.27448219    -0.88300
H2687       H  0.87069288  0.66427771  0.22842649     0.35800
H2688       H  0.85035739  0.65151358  0.24806907     0.40900
H2689       H  0.81771864  0.75435161  0.29262696     0.40500
H2690       H  0.80781829  0.76548901  0.26466444     0.35400
C2691       C  0.95052248  0.74924671  0.18795185    -0.26300
C2692       C  0.94102333  0.76296765  0.16744502    -0.14400
C2693       C  0.92195675  0.78114546  0.17160267     0.36200
C2694       C  0.91202251  0.78422421  0.19565675    -0.25800
C2695       C  0.92084086  0.76954143  0.21583979    -0.15000
C2696       C  0.94048844  0.75204475  0.21173243     0.37300
N2697       N  0.94936677  0.73584246  0.23129456    -0.89300
H2698       H  0.96501897  0.73504102  0.18537677     0.18400
H2699       H  0.89714372  0.79797850  0.19849110     0.18400
N2700       N  0.91257018  0.79645622  0.15157573    -0.88300
H2701       H  0.96874941  0.73832654  0.23359577     0.35800
H2702       H  0.94650759  0.71742267  0.22575872     0.40900
H2703       H  0.91547388  0.81509978  0.15634911     0.40500
H2704       H  0.89316518  0.79387563  0.14988307     0.35400
C2705       C  0.83682486  0.85679095  0.26066049    -0.26300
C2706       C  0.81623549  0.85120097  0.24536756    -0.14400
C2707       C  0.81517840  0.82774602  0.23369744     0.36200
C2708       C  0.83403907  0.80962053  0.23903378    -0.25800
C2709       C  0.85471777  0.81487743  0.25477106    -0.15000
C2710       C  0.85642881  0.83927703  0.26478320     0.37300
N2711       N  0.87835703  0.84683168  0.27841485    -0.89300
H2712       H  0.83798951  0.87512194  0.26901457     0.18400
H2713       H  0.83222233  0.79127205  0.23100005     0.18400
N2714       N  0.79527207  0.82261145  0.21610506    -0.88300
H2715       H  0.87271837  0.85285477  0.29595999     0.35800
H2716       H  0.88605764  0.86201424  0.26921602     0.40900
H2717       H  0.77816547  0.82356262  0.22525166     0.40500
H2718       H  0.79714852  0.80441966  0.20923081     0.35400
C2719       C  0.70539026  0.85552071  0.24891145    -0.26300
C2720       C  0.73105793  0.85047958  0.25434670    -0.14400
C2721       C  0.73765706  0.82784509  0.26669837     0.36200
C2722       C  0.71882907  0.81101444  0.27296860    -0.25800
C2723       C  0.69354960  0.81594330  0.26681049    -0.15000
C2724       C  0.68675861  0.83844971  0.25478124     0.37300
N2725       N  0.66111011  0.84421611  0.24800836    -0.89300
H2726       H  0.69963710  0.87284168  0.23992737     0.18400
H2727       H  0.72409195  0.79365391  0.28219011     0.18400
N2728       N  0.76338150  0.82118879  0.27215616    -0.88300
H2729       H  0.65037898  0.84405957  0.26411102     0.35800
H2730       H  0.65459697  0.83022017  0.23619144     0.40900
H2731       H  0.76739029  0.80401960  0.26378040     0.40500
H2732       H  0.76533950  0.81875279  0.29136216     0.35400
C2733       C  0.54638729  0.78496882  0.01916193    -0.26300
C2734       C  0.54007232  0.78281201  0.04432659    -0.14400
C2735       C  0.51492945  0.77710921  0.05021475     0.36200
C2736       C  0.49644386  0.77619224  0.03115781    -0.25800
C2737       C  0.50228576  0.78117243  0.00630096    -0.15000
C2738       C  0.52786911  0.78448463  0.00023726     0.37300
N2739       N  0.53566123  0.78773066  0.97512069    -0.89300
H2740       H  0.56561384  0.78880357  0.01417994     0.18400
H2741       H  0.47700571  0.77327699  0.03603704     0.18400
N2742       N  0.50797743  0.77330502  0.07560898    -0.88300
H2743       H  0.52801221  0.80443433  0.96813042     0.35800
H2744       H  0.52888717  0.77288750  0.96452670     0.40900
H2745       H  0.51746769  0.75725372  0.08198051     0.40500
H2746       H  0.48870170  0.76979069  0.07681630     0.35400
C2747       C  0.53111900  0.88612429  0.12577112    -0.26300
C2748       C  0.55188075  0.87433122  0.13752795    -0.14400
C2749       C  0.55611269  0.87827133  0.16325510     0.36200
C2750       C  0.53877980  0.89247231  0.17670190    -0.25800
C2751       C  0.51715055  0.90300817  0.16521229    -0.15000
C2752       C  0.51383985  0.90062725  0.13921278     0.37300
N2753       N  0.49251963  0.91207730  0.12660437    -0.89300
H2754       H  0.52795949  0.88346223  0.10603207     0.18400
H2755       H  0.54180992  0.89439240  0.19655194     0.18400
N2756       N  0.57694866  0.86703713  0.17661829    -0.88300
H2757       H  0.49232733  0.90748176  0.10774276     0.35800
H2758       H  0.49474477  0.93138877  0.12750847     0.40900
H2759       H  0.59367783  0.87332962  0.16906260     0.40500
H2760       H  0.57608746  0.84768271  0.17474209     0.35400
C2761       C  0.60178207  0.79383282  0.19126762    -0.26300
C2762       C  0.61446563  0.78206715  0.17163581    -0.14400
C2763       C  0.63586639  0.76686231  0.17746159     0.36200
C2764       C  0.64411124  0.76425678  0.20231791    -0.25800
C2765       C  0.63193253  0.77693938  0.22174338    -0.15000
C2766       C  0.61056205  0.79197151  0.21589917     0.37300
N2767       N  0.59840499  0.80656880  0.23461858    -0.89300
H2768       H  0.58549139  0.80573914  0.18744092     0.18400
H2769       H  0.66037819  0.75236848  0.20639970     0.18400
N2770       N  0.64953720  0.75371674  0.15873060    -0.88300
H2771       H  0.57948852  0.80155824  0.23503615     0.35800
H2772       H  0.59912502  0.82535412  0.22945584     0.40900
H2773       H  0.65743655  0.76667084  0.14675827     0.40500
H2774       H  0.63696695  0.74268816  0.14869368     0.35400
C2775       C  0.74059453  0.00847566  0.99267719    -0.26300
C2776       C  0.75034039  0.01347122  0.01655766    -0.14400
C2777       C  0.76066787  0.03719759  0.02104952     0.36200
C2778       C  0.75926403  0.05577010  0.00249225    -0.25800
C2779       C  0.74772741  0.05130603  0.97927453    -0.15000
C2780       C  0.73913874  0.02701087  0.97416506     0.37300
N2781       N  0.72754745  0.02131749  0.95069726    -0.89300
H2782       H  0.73265491  0.99042974  0.98864929     0.18400
H2783       H  0.76619021  0.07417646  0.00678148     0.18400
N2784       N  0.77174876  0.04295463  0.04471543    -0.88300
H2785       H  0.70919070  0.01550332  0.95388325     0.35800
H2786       H  0.73755790  0.00641927  0.94284457     0.40900
H2787       H  0.76191898  0.05822453  0.05209598     0.40500
H2788       H  0.79032071  0.04828262  0.04187068     0.35400
C2789       C  0.64050621  0.99708930  0.11068292    -0.26300
C2790       C  0.66198934  0.00942621  0.10259798    -0.14400
C2791       C  0.66387284  0.03538092  0.10613040     0.36200
C2792       C  0.64531280  0.04803560  0.11962248    -0.25800
C2793       C  0.62533060  0.03516756  0.13013793    -0.15000
C2794       C  0.62236827  0.00961060  0.12476906     0.37300
N2795       N  0.60141063  0.99588462  0.13356509    -0.89300
H2796       H  0.63865190  0.97723867  0.10755533     0.18400
H2797       H  0.64751359  0.06771522  0.12350123     0.18400
N2798       N  0.68507239  0.04859937  0.09681845    -0.88300
H2799       H  0.58483054  0.00517221  0.12784861     0.35800
H2800       H  0.60213949  0.99533134  0.15294912     0.40900
H2801       H  0.68378565  0.06751655  0.10137395     0.40500
H2802       H  0.68428887  0.04757093  0.07743122     0.35400
C2803       C  0.76229083  0.91362794  0.14950132    -0.26300
C2804       C  0.75681134  0.93928609  0.14841256    -0.14400
C2805       C  0.75575041  0.95278893  0.17094753     0.36200
C2806       C  0.76060766  0.94058225  0.19365468    -0.25800
C2807       C  0.76545023  0.91459854  0.19498512    -0.15000
C2808       C  0.76578743  0.90116069  0.17231773     0.37300
N2809       N  0.76895858  0.87455963  0.17234779    -0.89300
H2810       H  0.76240827  0.90277862  0.13253799     0.18400
H2811       H  0.75932855  0.95183321  0.21012239     0.18400
N2812       N  0.74961637  0.97892704  0.17153983    -0.88300
H2813       H  0.78468937  0.86999866  0.16173654     0.35800
H2814       H  0.75313668  0.86689614  0.16369438     0.40900
H2815       H  0.73114189  0.98169983  0.16518981     0.40500
H2816       H  0.76184504  0.98831086  0.15981357     0.35400
C2817       C  0.66588604  0.89649989  0.04912104    -0.26300
C2818       C  0.68908905  0.89509219  0.06190688    -0.14400
C2819       C  0.69519866  0.87336452  0.07577194     0.36200
C2820       C  0.67693026  0.85494282  0.07880829    -0.25800
C2821       C  0.65250524  0.85809124  0.06861022    -0.15000
C2822       C  0.64751871  0.87861410  0.05254344     0.37300
N2823       N  0.62379424  0.88232415  0.03990331    -0.89300
H2824       H  0.66112976  0.91269429  0.03778025     0.18400
H2825       H  0.68130803  0.83911357  0.09076782     0.18400
N2826       N  0.71919240  0.87062433  0.08811173    -0.88300
H2827       H  0.60988917  0.88637657  0.05284152     0.35800
H2828       H  0.61934267  0.86600101  0.03034027     0.40900
H2829       H  0.72773029  0.85410252  0.08188540     0.40500
H2830       H  0.71617417  0.86877272  0.10715372     0.35400
C2831       C  0.78014158  0.99541164  0.49401892    -0.26300
C2832       C  0.77669560  0.00125858  0.46870111    -0.14400
C2833       C  0.76773071  0.02559615  0.46230751     0.36200
C2834       C  0.76491550  0.04375407  0.48086000    -0.25800
C2835       C  0.77143045  0.03858158  0.50577020    -0.15000
C2836       C  0.77765801  0.01374277  0.51248225     0.37300
N2837       N  0.78262313  0.00721396  0.53791994    -0.89300
H2838       H  0.78632972  0.97679734  0.49950308     0.18400
H2839       H  0.75980480  0.06264426  0.47530576     0.18400
N2840       N  0.76306965  0.03310703  0.43709237    -0.88300
H2841       H  0.80098300  0.99991143  0.53934941     0.35800
H2842       H  0.77026011  0.99314770  0.54282372     0.40900
H2843       H  0.74953753  0.02145306  0.42929458     0.40500
H2844       H  0.77980876  0.03130982  0.42725532     0.35400
C2845       C  0.89291758  0.97923424  0.36848761    -0.26300
C2846       C  0.87716652  0.99297536  0.38432909    -0.14400
C2847       C  0.87872218  0.01913970  0.38482571     0.36200
C2848       C  0.89385820  0.03122525  0.36771480    -0.25800
C2849       C  0.90731857  0.01760844  0.34987871    -0.15000
C2850       C  0.90793792  0.99128495  0.35112191     0.37300
N2851       N  0.92293169  0.97689375  0.33415945    -0.89300
H2852       H  0.89221403  0.95904841  0.36840492     0.18400
H2853       H  0.89374965  0.05143983  0.36744007     0.18400
N2854       N  0.86431483  0.03356744  0.40208268    -0.88300
H2855       H  0.92089722  0.95779623  0.33731582     0.35800
H2856       H  0.94182360  0.98081122  0.33792654     0.40900
H2857       H  0.85251617  0.04584153  0.39198727     0.40500
H2858       H  0.87678875  0.04419025  0.41270037     0.35400
C2859       C  0.80029203  0.94022151  0.31981424    -0.26300
C2860       C  0.78565668  0.93182573  0.33960121    -0.14400
C2861       C  0.76670548  0.91435617  0.33451281     0.36200
C2862       C  0.76298103  0.90554901  0.31008666    -0.25800
C2863       C  0.77783287  0.91382932  0.29044484    -0.15000
C2864       C  0.79688924  0.93126842  0.29561620     0.37300
N2865       N  0.81426543  0.93900717  0.27716804    -0.89300
H2866       H  0.81534597  0.95319624  0.32327618     0.18400
H2867       H  0.74850066  0.89198158  0.30648546     0.18400
N2868       N  0.75127113  0.90538137  0.35402250    -0.88300
H2869       H  0.80465608  0.94933202  0.26348030     0.35800
H2870       H  0.82251221  0.92315055  0.26915856     0.40900
H2871       H  0.75348186  0.88598034  0.35489624     0.40500
H2872       H  0.73247819  0.90951140  0.34929694     0.35400
C2873       C  0.99680724  0.78868699  0.51780692    -0.26300
C2874       C  0.00561269  0.78180798  0.49429469    -0.14400
C2875       C  0.03075953  0.77298310  0.49233953     0.36200
C2876       C  0.04729633  0.77493970  0.51294050    -0.25800
C2877       C  0.03927093  0.78528163  0.53553740    -0.15000
C2878       C  0.01320170  0.79064671  0.53829524     0.37300
N2879       N  0.00284294  0.79948551  0.56110597    -0.89300
H2880       H  0.97734462  0.79460665  0.51994180     0.18400
H2881       H  0.06695577  0.76979032  0.51077748     0.18400
N2882       N  0.03985662  0.76341813  0.46917853    -0.88300
H2883       H  0.01027229  0.81691458  0.56529578     0.35800
H2884       H  0.00762349  0.78675891  0.57521465     0.40900
H2885       H  0.03011284  0.74706390  0.46533772     0.40500
H2886       H  0.05889938  0.75827276  0.47077817     0.35400
C2887       C  0.03812931  0.86315024  0.39752301    -0.26300
C2888       C  0.01220776  0.86833345  0.39856820    -0.14400
C2889       C  0.00197568  0.88862393  0.38477086     0.36200
C2890       C  0.01743798  0.90195010  0.36875978    -0.25800
C2891       C  0.04298167  0.89535589  0.36616340    -0.15000
C2892       C  0.05356247  0.87626570  0.38158402     0.37300
N2893       N  0.07949764  0.86856316  0.38050760    -0.89300
H2894       H  0.04633731  0.84782528  0.40824997     0.18400
H2895       H  0.00907697  0.91671641  0.35738720     0.18400
N2896       N  0.97566782  0.89483687  0.38573219    -0.88300
H2897       H  0.09075684  0.88378536  0.38491338     0.35800
H2898       H  0.08337029  0.86232441  0.36258994     0.40900
H2899       H  0.96802425  0.89337251  0.36779238     0.40500
H2900       H  0.97383392  0.91345231  0.39129422     0.35400
C2901       C  0.94752589  0.79428436  0.33844074    -0.26300
C2902       C  0.94142265  0.77931521  0.35881770    -0.14400
C2903       C  0.92469010  0.75949326  0.35505014     0.36200
C2904       C  0.91387368  0.75576171  0.33122817    -0.25800
C2905       C  0.91906027  0.77167526  0.31096289    -0.15000
C2906       C  0.93622599  0.79111016  0.31508061     0.37300
N2907       N  0.94141545  0.80863583  0.29578741    -0.89300
H2908       H  0.96016780  0.80975756  0.34083624     0.18400
H2909       H  0.90050216  0.74104032  0.32935660     0.18400
N2910       N  0.91803252  0.74375371  0.37547807    -0.88300
H2911       H  0.93627066  0.82646687  0.30195555     0.35800
H2912       H  0.96082291  0.80828913  0.29282933     0.40900
H2913       H  0.93425667  0.73384706  0.38112416     0.40500
H2914       H  0.90495275  0.73047849  0.36978338     0.35400
C2915       C  0.87373115  0.84774830  0.42782521    -0.26300
C2916       C  0.89365250  0.85153209  0.44479208    -0.14400
C2917       C  0.89199712  0.87158748  0.46166365     0.36200
C2918       C  0.87200737  0.88903514  0.45921980    -0.25800
C2919       C  0.85353785  0.88673422  0.44041472    -0.15000
C2920       C  0.85379617  0.86519463  0.42540738     0.37300
N2921       N  0.83500209  0.86186153  0.40638555    -0.89300
H2922       H  0.87457087  0.83223594  0.41497417     0.18400
H2923       H  0.87162063  0.90524684  0.47119875     0.18400
N2924       N  0.91107971  0.87468734  0.48058684    -0.88300
H2925       H  0.82637429  0.84479598  0.40950647     0.35800
H2926       H  0.84400087  0.86083353  0.38928422     0.40900
H2927       H  0.91032073  0.85930740  0.49253577     0.40500
H2928       H  0.90716497  0.89045578  0.49131379     0.35400
loop_ 
_geom_bond_atom_site_label_1 
_geom_bond_atom_site_label_2 
_geom_bond_distance 
_geom_bond_site_symmetry_2 
_ccdc_geom_bond_type 
O1            C4   1.268       .  A
O1           Cd6   2.450       .  S
C2           O11   1.265   1_655  A
C2            O7   1.265       .  A
C2         C2888   1.480   1_655  S
O3            C9   1.263       .  A
O3           Cd6   2.473       .  S
C4           O12   1.268       .  A
C4         C2916   1.482       .  S
C5           O10   1.270       .  A
C5            O8   1.261       .  A
C5         C2902   1.489       .  S
Cd6          O13   2.502       .  S
Cd6          O12   2.463       .  S
Cd6          O11   2.441   1_655  S
Cd6           O7   2.482       .  S
Cd6          O10   2.527       .  S
Cd6           O8   2.407       .  S
C9           O13   1.264       .  A
C9         C2874   1.491   1_655  S
O14          C17   1.262       .  A
O14         Cd19   2.450       .  S
C15          O24   1.269       .  A
C15          O20   1.265       .  A
C15        C2919   1.483       .  S
O16          C22   1.263       .  A
O16         Cd19   2.479       .  S
C17          O25   1.265       .  A
C17        C2846   1.475       .  S
C18          O23   1.270       .  A
C18          O21   1.263       .  A
C18        C2860   1.494       .  S
Cd19         O26   2.516       .  S
Cd19         O25   2.455       .  S
Cd19         O24   2.482       .  S
Cd19         O20   2.434       .  S
Cd19         O23   2.523       .  S
Cd19         O21   2.446       .  S
C22          O26   1.264       .  A
C22        C2832   1.495   1_565  S
O27          C30   1.266       .  A
O27         Cd32   2.412       .  S
C28          O37   1.264       .  A
C28          O33   1.265   1_565  A
C28        C2790   1.473   1_565  S
O29          C35   1.262       .  A
O29         Cd32   2.451       .  S
C30          O38   1.269       .  A
C30        C2818   1.484       .  S
C31          O36   1.264       .  A
C31          O34   1.264       .  A
C31        C2776   1.497   1_565  S
Cd32         O39   2.503       .  S
Cd32         O38   2.497       .  S
Cd32         O37   2.462       .  S
Cd32         O33   2.429   1_565  S
Cd32         O36   2.511       .  S
Cd32         O34   2.488       .  S
C35          O39   1.270       .  A
C35        C2804   1.488       .  S
O40          C43   1.263       .  A
O40         Cd45   2.446       .  S
C41          O50   1.268       .  A
C41          O46   1.263       .  A
C41        C2821   1.485       .  S
O42          C48   1.268       .  A
O42         Cd45   2.525       .  S
C43          O51   1.266       .  A
C43        C2748   1.478       .  S
C44          O49   1.267       .  A
C44          O47   1.262       .  A
C44        C2734   1.497       .  S
Cd45         O52   2.441       .  S
Cd45         O51   2.451       .  S
Cd45         O50   2.504       .  S
Cd45         O46   2.429       .  S
Cd45         O49   2.528       .  S
Cd45         O47   2.477       .  S
C48          O52   1.262       .  A
C48        C2762   1.494       .  S
C53          C54   1.550       .  S
C53          C59   1.539       .  S
C53          C57   1.541       .  S
C53        C2807   1.545       .  S
C54          H61   1.079       .  S
C54          C55   1.367       .  D
C55          C56   1.536       .  S
C55        C2863   1.493       .  S
C56          C60   1.544       .  S
C56          C58   1.536       .  S
C56          H62   1.107       .  S
C57          H63   1.086       .  S
C57          C58   1.362       .  D
C58        C2706   1.478       .  S
C59          H64   1.086       .  S
C59          C60   1.372       .  D
C60        C2720   1.500       .  S
C65          C66   1.535       .  S
C65          C71   1.544       .  S
C65          C69   1.537       .  S
C65        C2905   1.540       .  S
C66          H73   1.083       .  S
C66          C67   1.369       .  D
C67          C68   1.548       .  S
C67        C2709   1.504       .  S
C68          C72   1.542       .  S
C68          C70   1.539       .  S
C68          H74   1.108       .  S
C69          H75   1.081       .  S
C69          C70   1.360       .  D
C70        C2678   1.471       .  S
C71          H76   1.085       .  S
C71          C72   1.372       .  D
C72        C2695   1.501       .  S
C77          C78   1.534       .  S
C77          C83   1.544       .  S
C77          C81   1.547       .  S
C77        C2667   1.541       .  S
C78          H85   1.083       .  S
C78          C79   1.363       .  D
C79          C80   1.539       .  S
C79        C2650   1.490       .  S
C80          C84   1.538       .  S
C80          C82   1.535       .  S
C80          H86   1.110       .  S
C81          H87   1.082       .  S
C81          C82   1.366       .  D
C82        C2723   1.476       .  S
C83          H88   1.084       .  S
C83          C84   1.371       .  D
C84        C2765   1.498       .  S
O89          C92   1.267       .  A
O89         Cd94   2.464       .  S
C90          O99   1.268       .  A
C90          O95   1.265       .  A
C90        C2636   1.485       .  S
O91          C97   1.264       .  A
O91         Cd94   2.446       .  S
C92         O100   1.260       .  A
C92        C2622   1.482       .  S
C93          O98   1.266       .  A
C93          O96   1.266       .  A
C93        C2608   1.497       .  S
Cd94        O101   2.509       .  S
Cd94        O100   2.441       .  S
Cd94         O99   2.468       .  S
Cd94         O95   2.437       .  S
Cd94         O98   2.491       .  S
Cd94         O96   2.501       .  S
C97         O101   1.269       .  A
C97        C2664   1.489       .  S
O102        C105   1.267       .  A
O102       Cd107   2.429       .  S
C103        O112   1.264       .  A
C103        O108   1.265       .  A
C103       C2580   1.478       .  S
O104        C110   1.266       .  A
O104       Cd107   2.525       .  S
C105        O113   1.270       .  A
C105       C2639   1.479       .  S
C106        O111   1.262       .  A
C106        O109   1.264       .  A
C106       C2566   1.495       .  S
Cd107       O114   2.483       .  S
Cd107       O113   2.463       .  S
Cd107       O112   2.450       .  S
Cd107       O108   2.447       .  S
Cd107       O111   2.473       .  S
Cd107       O109   2.534       .  S
C110        O114   1.263       .  A
C110       C2594   1.499       .  S
O115        C118   1.263       .  A
O115       Cd120   2.467       .  S
C116        O125   1.269       .  A
C116        O121   1.266       .  A
C116       C2552   1.489       .  S
O117        C123   1.262       .  A
O117       Cd120   2.444       .  S
C118        O126   1.265   1_655  A
C118       C2538   1.487   1_655  S
C119        O124   1.263       .  A
C119        O122   1.266       .  A
C119       C2524   1.503   1_655  S
Cd120       O127   2.560       .  S
Cd120       O126   2.482   1_655  S
Cd120       O125   2.493       .  S
Cd120       O121   2.455       .  S
Cd120       O124   2.506       .  S
Cd120       O122   2.532       .  S
C123        O127   1.270       .  A
C123       C2692   1.498       .  S
O128        C131   1.266       .  A
O128       Cd133   2.467       .  S
C129        O138   1.263       .  A
C129        O134   1.265       .  A
C129       C2496   1.474       .  S
O130        C136   1.270       .  A
O130       Cd133   2.505       .  S
C131        O139   1.267       .  A
C131       C2555   1.490       .  S
C132        O137   1.266       .  A
C132        O135   1.264       .  A
C132       C2485   1.492       .  S
Cd133       O140   2.449       .  S
Cd133       O139   2.489       .  S
Cd133       O138   2.435       .  S
Cd133       O134   2.468       .  S
Cd133       O137   2.509       .  S
Cd133       O135   2.474       .  S
C136        O140   1.262       .  A
C136       C2510   1.490       .  S
C141        C142   1.546       .  S
C141        C147   1.535       .  S
C141        C145   1.545       .  S
C141       C2513   1.541       .  S
C142        H149   1.085       .  S
C142        C143   1.374       .  D
C143        C144   1.544       .  S
C143       C2597   1.501       .  S
C144        C148   1.543       .  S
C144        C146   1.534       .  S
C144        H150   1.109       .  S
C145        H151   1.081       .  S
C145        C146   1.360       .  D
C146       C2653   1.475       .  S
C147        H152   1.085       .  S
C147        C148   1.365       .  D
C148       C2681   1.495       .  S
O153        C156   1.262       .  A
O153       Cd158   2.446       .  S
C154        O163   1.268       .  A
C154        O159   1.268       .  A
C154       C2468   1.488       .  S
O155        C161   1.264       .  A
O155       Cd158   2.502       .  S
C156        O164   1.264       .  A
C156       C2793   1.471       .  S
C157        O162   1.270       .  A
C157        O160   1.261       .  A
C157       C2454   1.490       .  S
Cd158       O165   2.487       .  S
Cd158       O164   2.459       .  S
Cd158       O163   2.462       .  S
Cd158       O159   2.447       .  S
Cd158       O162   2.528       .  S
Cd158       O160   2.427       .  S
C161        O165   1.264       .  A
C161       C2440   1.493       .  S
O166        C169   1.261       .  A
O166       Cd171   2.449       .  S
C167        O176   1.270       .  A
C167        O172   1.266       .  A
C167       C2471   1.484       .  S
O168        C174   1.269       .  A
O168       Cd171   2.536       .  S
C169        O177   1.265       .  A
C169       C2412   1.479       .  S
C170        O175   1.264       .  A
C170        O173   1.265       .  A
C170       C2401   1.495       .  S
Cd171       O178   2.435       .  S
Cd171       O177   2.444       .  S
Cd171       O176   2.477       .  S
Cd171       O172   2.429       .  S
Cd171       O175   2.500       .  S
Cd171       O173   2.487       .  S
C174        O178   1.262       .  A
C174       C2426   1.498       .  S
C179        C180   1.538       .  S
C179        C185   1.542       .  S
C179        C183   1.547       .  S
C179       C2384   1.552       .  S
C180        H187   1.086       .  S
C180        C181   1.371       .  D
C181        C182   1.543       .  S
C181       C2457   1.489       .  S
C182        C186   1.540       .  S
C182        C184   1.533       .  S
C182        H188   1.111       .  S
C183        H189   1.076       .  S
C183        C184   1.366       .  D
C184       C2356   1.489       .  S
C185        H190   1.082       .  S
C185        C186   1.366       .  D
C186       C2370   1.492       .  S
O191        C194   1.261       .  A
O191       Cd196   2.432       .  S
C192        O201   1.269       .  A
C192        O197   1.266       .  A
C192       C2342   1.478       .  S
O193        C199   1.271       .  A
O193       Cd196   2.537       .  S
C194        O202   1.266       .  A
C194       C2314   1.476       .  S
C195        O200   1.264       .  A
C195        O198   1.266       .  A
C195       C2300   1.497       .  S
Cd196       O203   2.432       .  S
Cd196       O202   2.452       .  S
Cd196       O201   2.467       .  S
Cd196       O197   2.438       .  S
Cd196       O200   2.484       .  S
Cd196       O198   2.506       .  S
C199        O203   1.260       .  A
C199       C2328   1.496       .  S
O204        C207   1.265       .  A
O204       Cd209   2.441       .  S
C205        O214   1.265       .  A
C205        O210   1.263       .  A
C205       C2849   1.477       .  S
O206        C212   1.271       .  A
O206       Cd209   2.522       .  S
C207        O215   1.269       .  A
C207       C2345   1.480       .  S
C208        O213   1.264       .  A
C208        O211   1.264       .  A
C208       C2286   1.492       .  S
Cd209       O216   2.445       .  S
Cd209       O215   2.474       .  S
Cd209       O214   2.453       .  S
Cd209       O210   2.445       .  S
Cd209       O213   2.493       .  S
Cd209       O211   2.478       .  S
C212        O216   1.262       .  A
C212       C2387   1.494       .  S
C217        C218   1.538       .  S
C217        C223   1.553       .  S
C217        C221   1.542       .  S
C217       C2272   1.551       .  S
C218        H225   1.086       .  S
C218        C219   1.359       .  D
C219        C220   1.525       .  S
C219       C2261   1.475       .  S
C220        C224   1.539       .  S
C220        C222   1.543       .  S
C220        H226   1.105       .  S
C221        H227   1.083       .  S
C221        C222   1.372       .  D
C222       C2373   1.501       .  S
C223        H228   1.080       .  S
C223        C224   1.372       .  D
C224       C2331   1.497       .  S
O229        C232   1.267       .  A
O229       Cd234   2.441       .  S
C230        O239   1.264       .  A
C230        O235   1.264       .  A
C230       C2583   1.477       .  S
O231        C237   1.271       .  A
O231       Cd234   2.561       .  S
C232        O240   1.271       .  A
C232       C2244   1.484       .  S
C233        O238   1.264       .  A
C233        O236   1.267       .  A
C233       C2216   1.501       .  S
Cd234       O241   2.445       .  S
Cd234       O240   2.459       .  S
Cd234       O239   2.429       .  S
Cd234       O235   2.453       .  S
Cd234       O238   2.499       .  S
Cd234       O236   2.529       .  S
C237        O241   1.260       .  A
C237       C2230   1.498       .  S
O242        C245   1.266       .  A
O242       Cd247   2.459       .  S
C243        O252   1.264       .  A
C243        O248   1.265       .  A
C243       C2202   1.478       .  S
O244        C250   1.262       .  A
O244       Cd247   2.499       .  S
C245        O253   1.267       .  A
C245       C2247   1.489       .  S
C246        O251   1.269       .  A
C246        O249   1.262       .  A
C246       C2275   1.492       .  S
Cd247       O254   2.518       .  S
Cd247       O253   2.464       .  S
Cd247       O252   2.423       .  S
Cd247       O248   2.456       .  S
Cd247       O251   2.518       .  S
Cd247       O249   2.459       .  S
C250        O254   1.265       .  A
C250       C2188   1.497       .  S
C255        C256   1.537       .  S
C255        C261   1.548       .  S
C255        C259   1.535       .  S
C255       C2177   1.551       .  S
C256        H263   1.086       .  S
C256        C257   1.364       .  D
C257        C258   1.538       .  S
C257       C2160   1.483       .  S
C258        C262   1.549       .  S
C258        C260   1.539       .  S
C258        H264   1.110       .  S
C259        H265   1.085       .  S
C259        C260   1.364       .  D
C260       C2359   1.486       .  S
C261        H266   1.079       .  S
C261        C262   1.375       .  D
C262       C2429   1.502       .  S
O267        C270   1.265       .  A
O267       Cd272   2.453       .  S
C268        O277   1.266       .  A
C268        O273   1.263       .  A
C268       C2499   1.478       .  S
O269        C275   1.271       .  A
O269       Cd272   2.540       .  S
C270        O278   1.269       .  A
C270       C2146   1.490       .  S
C271        O276   1.264       .  A
C271        O274   1.265       .  A
C271       C2118   1.498       .  S
Cd272       O279   2.436       .  S
Cd272       O278   2.497       .  S
Cd272       O277   2.443       .  S
Cd272       O273   2.439       .  S
Cd272       O276   2.490       .  S
Cd272       O274   2.495       .  S
C275        O279   1.260       .  A
C275       C2132   1.492       .  S
O280        C283   1.266       .  A
O280       Cd285   2.454       .  S
C281        O290   1.262       .  A
C281        O286   1.267       .  A
C281       C2104   1.477       .  S
O282        C288   1.264       .  A
O282       Cd285   2.495       .  S
C283        O291   1.267       .  A
C283       C2149   1.483       .  S
C284        O289   1.263       .  A
C284        O287   1.268       .  A
C284       C2174   1.491       .  S
Cd285       O292   2.484       .  S
Cd285       O291   2.461       .  S
Cd285       O290   2.432       .  S
Cd285       O286   2.470       .  S
Cd285       O289   2.475       .  S
Cd285       O287   2.485       .  S
C288        O292   1.265       .  A
C288       C2090   1.494   1_554  S
C293        C294   1.547       .  S
C293        C299   1.536       .  S
C293        C297   1.547       .  S
C293       C2135   1.550       .  S
C294        H301   1.085       .  S
C294        C295   1.374       .  D
C295        C296   1.544       .  S
C295       C2233   1.504       .  S
C296        C300   1.536       .  S
C296        C298   1.540       .  S
C296        H302   1.107       .  S
C297        H303   1.076       .  S
C297        C298   1.363       .  D
C298       C2258   1.484       .  S
C299        H304   1.087       .  S
C299        C300   1.361       .  D
C300       C2163   1.483       .  S
O305        C308   1.266       .  A
O305       Cd310   2.464       .  S
C306        O315   1.270       .  A
C306        O311   1.266       .  A
C306       C2076   1.493       .  S
O307        C313   1.263       .  A
O307       Cd310   2.488       .  S
C308        O316   1.263       .  A
C308       C2048   1.479       .  S
C309        O314   1.259       .  A
C309        O312   1.270       .  A
C309       C2065   1.486       .  S
Cd310       O317   2.485       .  S
Cd310       O316   2.431       .  S
Cd310       O315   2.483       .  S
Cd310       O311   2.438       .  S
Cd310       O314   2.434       .  S
Cd310       O312   2.519       .  S
C313        O317   1.262       .  A
C313       C2034   1.490       .  S
O318        C321   1.264       .  A
O318       Cd323   2.452       .  S
C319        O328   1.269       .  A
C319        O324   1.266       .  A
C319       C2079   1.491       .  S
O320        C326   1.271       .  A
O320       Cd323   2.548       .  S
C321        O329   1.265       .  A
C321       C2107   1.480       .  S
C322        O327   1.263       .  A
C322        O325   1.265       .  A
C322       C2482   1.493       .  S
Cd323       O330   2.418       .  S
Cd323       O329   2.449       .  S
Cd323       O328   2.492       .  S
Cd323       O324   2.447       .  S
Cd323       O327   2.489       .  S
Cd323       O325   2.496       .  S
C326        O330   1.261       .  A
C326       C2020   1.495       .  S
O331        C334   1.263       .  A
O331       Cd336   2.434       .  S
C332        O341   1.266       .  A
C332        O337   1.264       .  A
C332       C1978   1.487       .  S
O333        C339   1.261       .  A
O333       Cd336   2.436       .  S
C334        O342   1.269       .  A
C334       C2006   1.486       .  S
C335        O340   1.265       .  A
C335        O338   1.264       .  A
C335       C1964   1.495       .  S
Cd336       O343   2.562       .  S
Cd336       O342   2.489       .  S
Cd336       O341   2.492       .  S
Cd336       O337   2.460       .  S
Cd336       O340   2.491       .  S
Cd336       O338   2.504       .  S
C339        O343   1.269       .  A
C339       C1995   1.498       .  S
O344        C347   1.264       .  A
O344       Cd349   2.431       .  S
C345        O354   1.268       .  A
C345        O350   1.265       .  A
C345       C2009   1.481       .  S
O346        C352   1.263       .  A
O346       Cd349   2.482       .  S
C347        O355   1.266       .  A
C347       C2317   1.475       .  S
C348        O353   1.267       .  A
C348        O351   1.264       .  A
C348       C2835   1.490       .  S
Cd349       O356   2.486       .  S
Cd349       O355   2.437       .  S
Cd349       O354   2.487       .  S
Cd349       O350   2.426       .  S
Cd349       O353   2.497       .  S
Cd349       O351   2.466       .  S
C352        O356   1.269       .  A
C352       C1953   1.498       .  S
C357        C358   1.548       .  S
C357        C363   1.530       .  S
C357        C361   1.535       .  S
C357       C2062   1.540       .  S
C358        H365   1.080       .  S
C358        C359   1.376       .  D
C359        C360   1.544       .  S
C359       C1992   1.502       .  S
C360        C364   1.535       .  S
C360        C362   1.546       .  S
C360        H366   1.105       .  S
C361        H367   1.085       .  S
C361        C362   1.370       .  D
C362       C1936   1.502       .  S
C363        H368   1.087       .  S
C363        C364   1.359       .  D
C364       C1922   1.478       .  S
C369        C370   1.532       .  S
C369        C375   1.540       .  S
C369        C373   1.543       .  S
C369       C2023   1.541       .  S
C370        H377   1.087       .  S
C370        C371   1.360       .  D
C371        C372   1.533       .  S
C371       C1925   1.482       .  S
C372        C376   1.549       .  S
C372        C374   1.543       .  S
C372        H378   1.104       .  S
C373        H379   1.081       .  S
C373        C374   1.370       .  D
C374       C1894   1.493       .  S
C375        H380   1.085       .  S
C375        C376   1.374       .  D
C376       C1908   1.505       .  S
C381        C382   1.541       .  S
C381        C387   1.545       .  S
C381        C385   1.548       .  S
C381       C1950   1.549       .  S
C382        H389   1.086       .  S
C382        C383   1.368       .  D
C383        C384   1.536       .  S
C383       C1939   1.490       .  S
C384        C388   1.543       .  S
C384        C386   1.532       .  S
C384        H390   1.105       .  S
C385        H391   1.078       .  S
C385        C386   1.361       .  D
C386       C1866   1.490       .  S
C387        H392   1.085       .  S
C387        C388   1.375       .  D
C388       C1880   1.496       .  S
O393        C396   1.262       .  A
O393       Cd398   2.474       .  S
C394        O403   1.272       .  A
C394        O399   1.267       .  A
C394       C1852   1.487       .  S
O395        C401   1.267       .  A
O395       Cd398   2.518       .  S
C396        O404   1.261       .  A
C396       C1824   1.482       .  S
C397        O402   1.265       .  A
C397        O400   1.262       .  A
C397       C1838   1.496       .  S
Cd398       O405   2.471       .  S
Cd398       O404   2.448       .  S
Cd398       O403   2.491       .  S
Cd398       O399   2.412       .  S
Cd398       O402   2.539       .  S
Cd398       O400   2.472       .  S
C401        O405   1.262       .  A
C401       C1810   1.492       .  S
O406        C409   1.267       .  A
O406       Cd411   2.449       .  S
C407        O416   1.270       .  A
C407        O412   1.266       .  A
C407       C1855   1.486       .  S
O408        C414   1.269       .  A
O408       Cd411   2.536       .  S
C409        O417   1.265       .  A
C409       C2205   1.472       .  S
C410        O415   1.259       .  A
C410        O413   1.270       .  A
C410       C2569   1.485       .  S
Cd411       O418   2.445       .  S
Cd411       O417   2.407       .  S
Cd411       O416   2.475       .  S
Cd411       O412   2.440       .  S
Cd411       O415   2.431       .  S
Cd411       O413   2.560       .  S
C414        O418   1.260       .  A
C414       C1883   1.496       .  S
O419        C422   1.261       .  A
O419       Cd424   2.438       .  S
C420        O429   1.269       .  A
C420        O425   1.264       .  A
C420       C1796   1.480       .  S
O421        C427   1.263       .  A
O421       Cd424   2.450       .  S
C422        O430   1.265       .  A
C422       C2415   1.482       .  S
C423        O428   1.266       .  A
C423        O426   1.264       .  A
C423       C2779   1.494       .  S
Cd424       O431   2.511       .  S
Cd424       O430   2.468       .  S
Cd424       O429   2.482       .  S
Cd424       O425   2.415       .  S
Cd424       O428   2.496       .  S
Cd424       O426   2.476       .  S
C427        O431   1.267       .  A
C427       C1911   1.493       .  S
O432        C435   1.266       .  A
O432       Cd437   2.424       .  S
C433        O442   1.265       .  A
C433        O438   1.264       .  A
C433       C1771   1.475       .  S
O434        C440   1.271       .  A
O434       Cd437   2.510       .  S
C435        O443   1.269       .  A
C435       C1799   1.484       .  S
C436        O441   1.265       .  A
C436        O439   1.264       .  A
C436       C1754   1.493       .  S
Cd437       O444   2.450       .  S
Cd437       O443   2.493       .  S
Cd437       O442   2.442       .  S
Cd437       O438   2.438       .  S
Cd437       O441   2.504       .  S
Cd437       O439   2.484       .  S
C440        O444   1.262       .  A
C440       C1782   1.494       .  S
C445        C446   1.548       .  S
C445        C451   1.533       .  S
C445        C449   1.548       .  S
C445       C1785   1.544       .  S
C446        H453   1.085       .  S
C446        C447   1.374       .  D
C447        C448   1.544       .  S
C447       C1841   1.494       .  S
C448        C452   1.542       .  S
C448        C450   1.534       .  S
C448        H454   1.109       .  S
C449        H455   1.082       .  S
C449        C450   1.364       .  D
C450       C1869   1.491       .  S
C451        H456   1.085       .  S
C451        C452   1.363       .  D
C452       C1897   1.493       .  S
O457        C460   1.266       .  A
O457       Cd462   2.448       .  S
C458        O467   1.265       .  A
C458        O463   1.265       .  A
C458       C1981   1.483       .  S
O459        C465   1.269       .  A
O459       Cd462   2.518       .  S
C460        O468   1.268       .  A
C460       C1740   1.485       .  S
C461        O466   1.264       .  A
C461        O464   1.265       .  A
C461       C2303   1.498       .  S
Cd462       O469   2.471       .  S
Cd462       O468   2.486       .  S
Cd462       O467   2.460       .  S
Cd462       O463   2.469       .  S
Cd462       O466   2.502       .  S
Cd462       O464   2.513       .  S
C465        O469   1.262       .  A
C465       C1726   1.490       .  S
O470        C473   1.262       .  A
O470       Cd475   2.472       .  S
C471        O480   1.269       .  A
C471        O476   1.267       .  A
C471       C1743   1.488       .  S
O472        C478   1.270       .  A
O472       Cd475   2.535       .  S
C473        O481   1.265       .  A
C473       C1698   1.481       .  S
C474        O479   1.264       .  A
C474        O477   1.265       .  A
C474       C1684   1.498       .  S
Cd475       O482   2.445       .  S
Cd475       O481   2.475       .  S
Cd475       O480   2.493       .  S
Cd475       O476   2.446       .  S
Cd475       O479   2.521       .  S
Cd475       O477   2.504       .  S
C478        O482   1.261       .  A
C478       C1712   1.497       .  S
C483        C484   1.532       .  S
C483        C489   1.552       .  S
C483        C487   1.537       .  S
C483       C1673   1.543       .  S
C484        H491   1.084       .  S
C484        C485   1.360       .  D
C485        C486   1.540       .  S
C485       C1656   1.489       .  S
C486        C490   1.547       .  S
C486        C488   1.542       .  S
C486        H492   1.102       .  S
C487        H493   1.086       .  S
C487        C488   1.367       .  D
C488       C1642   1.496       .  S
C489        H494   1.081       .  S
C489        C490   1.379       .  D
C490       C1715   1.510       .  S
O495        C498   1.264       .  A
O495       Cd500   2.434       .  S
C496        O505   1.265       .  A
C496        O501   1.263       .  A
C496       C1768   1.482       .  S
O497        C503   1.269       .  A
O497       Cd500   2.531       .  S
C498        O506   1.269       .  A
C498       C1628   1.490       .  S
C499        O504   1.265       .  A
C499        O502   1.264       .  A
C499       C2398   1.498       .  S
Cd500       O507   2.448       .  S
Cd500       O506   2.487       .  S
Cd500       O505   2.467       .  S
Cd500       O501   2.457       .  S
Cd500       O504   2.512       .  S
Cd500       O502   2.490       .  S
C503        O507   1.262       .  A
C503       C1614   1.499       .  S
O508        C511   1.261       .  A
O508       Cd513   2.432       .  S
C509        O518   1.268       .  A
C509        O514   1.265       .  A
C509       C1631   1.484       .  S
O510        C516   1.269       .  A
O510       Cd513   2.489       .  S
C511        O519   1.265       .  A
C511       C1600   1.481       .  S
C512        O517   1.265       .  A
C512        O515   1.264       .  A
C512       C1586   1.503       .  S
Cd513       O520   2.461       .  S
Cd513       O519   2.481       .  S
Cd513       O518   2.503       .  S
Cd513       O514   2.431       .  S
Cd513       O517   2.504       .  S
Cd513       O515   2.502       .  S
C516        O520   1.264       .  A
C516       C1670   1.494       .  S
C521        C522   1.548       .  S
C521        C527   1.534       .  S
C521        C525   1.530       .  S
C521       C1572   1.542       .  S
C522        H529   1.080       .  S
C522        C523   1.374       .  D
C523        C524   1.549       .  S
C523       C1617   1.510       .  S
C524        C528   1.554       .  S
C524        C526   1.540       .  S
C524        H530   1.098       .  S
C525        H531   1.087       .  S
C525        C526   1.357       .  D
C526       C1659   1.477       .  S
C527        H532   1.083       .  S
C527        C528   1.374       .  D
C528       C1561   1.515       .  S
O533        C536   1.265       .  A
O533       Cd538   2.431       .  S
C534        O543   1.270       .  A
C534        O539   1.266       .  A
C534       C1544   1.484       .  S
O535        C541   1.271       .  A
O535       Cd538   2.542       .  S
C536        O544   1.265       .  A
C536       C1516   1.475       .  S
C537        O542   1.265       .  A
C537        O540   1.262       .  A
C537       C1502   1.493       .  S
Cd538       O545   2.421       .  S
Cd538       O544   2.449       .  S
Cd538       O543   2.480       .  S
Cd538       O539   2.417       .  S
Cd538       O542   2.495       .  S
Cd538       O540   2.467       .  S
C541        O545   1.257       .  A
C541       C1530   1.494       .  S
O546        C549   1.266       .  A
O546       Cd551   2.439       .  S
C547        O556   1.264       .  A
C547        O552   1.265       .  A
C547       C1827   1.476       .  S
O548        C554   1.261       .  A
O548       Cd551   2.459       .  S
C549        O557   1.269       .  A
C549       C1547   1.483       .  S
C550        O555   1.265       .  A
C550        O553   1.264       .  A
C550       C2191   1.500       .  S
Cd551       O558   2.516       .  S
Cd551       O557   2.476       .  S
Cd551       O556   2.453       .  S
Cd551       O552   2.443       .  S
Cd551       O555   2.493       .  S
Cd551       O553   2.497       .  S
C554        O558   1.268       .  A
C554       C1575   1.489       .  S
C559        C560   1.557       .  S
C559        C565   1.542       .  S
C559        C563   1.539       .  S
C559       C1729   1.544       .  S
C560        H567   1.082       .  S
C560        C561   1.378       .  D
C561        C562   1.538       .  S
C561       C1491   1.496       .  S
C562        C566   1.539       .  S
C562        C564   1.531       .  S
C562        H568   1.107       .  S
C563        H569   1.086       .  S
C563        C564   1.359       .  D
C564       C1474   1.478       .  S
C565        H570   1.086       .  S
C565        C566   1.367       .  D
C566       C1645   1.500       .  S
O571        C574   1.265       .  A
O571       Cd576   2.437       .  S
C572        O581   1.263       .  A
C572        O577   1.263       .  A
C572       C2051   1.479       .  S
O573        C579   1.268       .  A
O573       Cd576   2.520       .  S
C574        O582   1.269       .  A
C574       C1460   1.481       .  S
C575        O580   1.265       .  A
C575        O578   1.262       .  A
C575       C2093   1.488       .  S
Cd576       O583   2.456       .  S
Cd576       O582   2.480       .  S
Cd576       O581   2.438       .  S
Cd576       O577   2.479       .  S
Cd576       O580   2.501       .  S
Cd576       O578   2.467       .  S
C579        O583   1.263       .  A
C579       C1488   1.495       .  S
O584        C587   1.265       .  A
O584       Cd589   2.445       .  S
C585        O594   1.266       .  A
C585        O590   1.262       .  A
C585       C1432   1.476       .  S
O586        C592   1.266       .  A
O586       Cd589   2.503       .  S
C587        O595   1.268       .  A
C587       C1463   1.488       .  S
C588        O593   1.270       .  A
C588        O591   1.261       .  A
C588       C1446   1.488       .  S
Cd589       O596   2.462       .  S
Cd589       O595   2.481       .  S
Cd589       O594   2.441       .  S
Cd589       O590   2.433       .  S
Cd589       O593   2.502       .  S
Cd589       O591   2.436       .  S
C592        O596   1.265       .  A
C592       C1418   1.491       .  S
C597        C598   1.546       .  S
C597        C603   1.543       .  S
C597        C601   1.550       .  S
C597       C1449   1.548       .  S
C598        H605   1.086       .  S
C598        C599   1.368       .  D
C599        C600   1.533       .  S
C599       C1477   1.487       .  S
C600        C604   1.534       .  S
C600        C602   1.530       .  S
C600        H606   1.111       .  S
C601        H607   1.079       .  S
C601        C602   1.360       .  D
C602       C1558   1.474       .  S
C603        H608   1.084       .  S
C603        C604   1.369       .  D
C604       C1533   1.485       .  S
O609        C612   1.265       .  A
O609       Cd614   2.433       .  S
C610        O619   1.263       .  A
C610        O615   1.263       .  A
C610       C1376   1.477       .  S
O611        C617   1.270       .  A
O611       Cd614   2.541       .  S
C612        O620   1.271       .  A
C612       C1404   1.486       .  S
C613        O618   1.265       .  A
C613        O616   1.265       .  A
C613       C1421   1.493       .  S
Cd614       O621   2.431       .  S
Cd614       O620   2.481       .  S
Cd614       O619   2.455       .  S
Cd614       O615   2.444       .  S
Cd614       O618   2.497       .  S
Cd614       O616   2.464       .  S
C617        O621   1.261       .  A
C617       C1390   1.486       .  S
O622        C625   1.263       .  A
O622       Cd627   2.439       .  S
C623        O632   1.269       .  A
C623        O628   1.265       .  A
C623       C1407   1.484       .  S
O624        C630   1.271       .  A
O624       Cd627   2.532       .  S
C625        O633   1.266       .  A
C625       C2541   1.483       .  S
C626        O631   1.266       .  A
C626        O629   1.262       .  A
C626       C2121   1.494       .  S
Cd627       O634   2.423       .  S
Cd627       O633   2.479       .  S
Cd627       O632   2.490       .  S
Cd627       O628   2.431       .  S
Cd627       O631   2.524       .  S
Cd627       O629   2.466       .  S
C630        O634   1.262       .  A
C630       C1362   1.490       .  S
C635        C636   1.540       .  S
C635        C641   1.547       .  S
C635        C639   1.545       .  S
C635       C1365   1.542       .  S
C636        H643   1.083       .  S
C636        C637   1.366       .  D
C637        C638   1.534       .  S
C637       C1320   1.486       .  S
C638        C642   1.530       .  S
C638        C640   1.533       .  S
C638        H644   1.110       .  S
C639        H645   1.082       .  S
C639        C640   1.364       .  D
C640       C1337   1.475       .  S
C641        H646   1.086       .  S
C641        C642   1.369       .  D
C642       C1351   1.485       .  S
O647        C650   1.265       .  A
O647       Cd652   2.443       .  S
C648        O657   1.265       .  A
C648        O653   1.264       .  A
C648       C1278   1.484       .  S
O649        C655   1.261       .  A
O649       Cd652   2.429       .  S
C650        O658   1.269       .  A
C650       C1306   1.484       .  S
C651        O656   1.268       .  A
C651        O654   1.264       .  A
C651       C1687   1.500       .  S
Cd652       O659   2.544       .  S
Cd652       O658   2.490       .  S
Cd652       O657   2.447       .  S
Cd652       O653   2.448       .  S
Cd652       O656   2.525       .  S
Cd652       O654   2.468       .  S
C655        O659   1.272       .  A
C655       C1292   1.498       .  S
O660        C663   1.265       .  A
O660       Cd665   2.423       .  S
C661        O670   1.266       .  A
C661        O666   1.261       .  A
C661       C2891   1.481       .  S
O662        C668   1.265       .  A
O662       Cd665   2.481       .  S
C663        O671   1.269       .  A
C663       C1309   1.486       .  S
C664        O669   1.271       .  A
C664        O667   1.259       .  A
C664       C1348   1.494       .  S
Cd665       O672   2.489       .  S
Cd665       O671   2.489       .  S
Cd665       O670   2.475       .  S
Cd665       O666   2.434       .  S
Cd665       O669   2.541       .  S
Cd665       O667   2.421       .  S
C668        O672   1.265       .  A
C668       C2289   1.493       .  S
C673        C674   1.544       .  S
C673        C679   1.542       .  S
C673        C677   1.543       .  S
C673       C1295   1.543       .  S
C674        H681   1.085       .  S
C674        C675   1.372       .  D
C675        C676   1.543       .  S
C675       C1267   1.502       .  S
C676        C680   1.539       .  S
C676        C678   1.536       .  S
C676        H682   1.107       .  S
C677        H683   1.081       .  S
C677        C678   1.364       .  D
C678       C1250   1.481       .  S
C679        H684   1.085       .  S
C679        C680   1.366       .  D
C680       C1334   1.495       .  S
O685        C688   1.265       .  A
O685       Cd690   2.449       .  S
C686        O695   1.265       .  A
C686        O691   1.264       .  A
C686       C2625   1.481       .  S
O687        C693   1.264       .  A
O687       Cd690   2.504       .  S
C688        O696   1.270       .  A
C688       C1236   1.491       .  S
C689        O694   1.259       .  A
C689        O692   1.272       .  A
C689       C1222   1.499       .  S
Cd690       O697   2.525       .  S
Cd690       O696   2.502       .  S
Cd690       O695   2.445       .  S
Cd690       O691   2.450       .  S
Cd690       O694   2.443       .  S
Cd690       O692   2.549       .  S
C693        O697   1.266       .  A
C693       C2219   1.501       .  S
O698        C701   1.266       .  A
O698       Cd703   2.454       .  S
C699        O708   1.267       .  A
C699        O704   1.259       .  A
C699       C1208   1.477       .  S
O700        C706   1.268       .  A
O700       Cd703   2.467       .  S
C701        O709   1.268       .  A
C701       C1239   1.487       .  S
C702        O707   1.263       .  A
C702        O705   1.264       .  A
C702       C1505   1.493       .  S
Cd703       O710   2.476       .  S
Cd703       O709   2.494       .  S
Cd703       O708   2.487       .  S
Cd703       O704   2.412       .  S
Cd703       O707   2.489       .  S
Cd703       O705   2.511       .  S
C706        O710   1.265       .  A
C706       C1264   1.486       .  S
C711        C712   1.558       .  S
C711        C717   1.535       .  S
C711        C715   1.535       .  S
C711       C1197   1.541       .  S
C712        H719   1.083       .  S
C712        C713   1.379       .  D
C713        C714   1.543       .  S
C713       C1393   1.501       .  S
C714        C718   1.537       .  S
C714        C716   1.537       .  S
C714        H720   1.110       .  S
C715        H721   1.087       .  S
C715        C716   1.355       .  D
C716       C1323   1.470       .  S
C717        H722   1.086       .  S
C717        C718   1.365       .  D
C718       C1183   1.492       .  S
O723        C726   1.266       .  A
O723       Cd728   2.434       .  S
C724        O733   1.262       .  A
C724        O729   1.266       .  A
C724       C1152   1.474       .  S
O725        C731   1.269       .  A
O725       Cd728   2.493       .  S
C726        O734   1.269       .  A
C726       C1166   1.489       .  S
C727        O732   1.266       .  A
C727        O730   1.265       .  A
C727       C1589   1.499       .  S
Cd728       O735   2.468       .  S
Cd728       O734   2.485       .  S
Cd728       O733   2.440       .  S
Cd728       O729   2.455       .  S
Cd728       O732   2.507       .  S
Cd728       O730   2.506       .  S
C731        O735   1.263       .  A
C731       C1194   1.494       .  S
O736        C739   1.266       .  A
O736       Cd741   2.452       .  S
C737        O746   1.270       .  A
C737        O742   1.264       .  A
C737       C1169   1.488       .  S
O738        C744   1.271       .  A
O738       Cd741   2.511       .  S
C739        O747   1.265       .  A
C739       C2751   1.482       .  S
C740        O745   1.265       .  A
C740        O743   1.264       .  A
C740       C2443   1.490       .  S
Cd741       O748   2.432       .  S
Cd741       O747   2.434       .  S
Cd741       O746   2.499       .  S
Cd741       O742   2.418       .  S
Cd741       O745   2.491       .  S
Cd741       O743   2.465       .  S
C744        O748   1.261       .  A
C744       C1138   1.492       .  S
C749        C750   1.533       .  S
C749        C755   1.544       .  S
C749        C753   1.542       .  S
C749       C1141   1.544       .  S
C750        H757   1.087       .  S
C750        C751   1.366       .  D
C751        C752   1.541       .  S
C751       C1180   1.489       .  S
C752        C756   1.545       .  S
C752        C754   1.536       .  S
C752        H758   1.108       .  S
C753        H759   1.081       .  S
C753        C754   1.362       .  D
C754       C1253   1.481       .  S
C755        H760   1.086       .  S
C755        C756   1.375       .  D
C756       C1225   1.499       .  S
O761        C764   1.265       .  A
O761       Cd766   2.442       .  S
C762        O771   1.270       .  A
C762        O767   1.264       .  A
C762       C1124   1.488       .  S
O763        C769   1.271       .  A
O763       Cd766   2.552       .  S
C764        O772   1.265       .  A
C764       C1603   1.480   1_565  S
C765        O770   1.265       .  A
C765        O768   1.264       .  A
C765       C1757   1.492       .  S
Cd766       O773   2.435       .  S
Cd766       O772   2.465       .  S
Cd766       O771   2.497       .  S
Cd766       O767   2.432       .  S
Cd766       O770   2.499       .  S
Cd766       O768   2.481       .  S
C769        O773   1.262       .  A
C769       C1110   1.498       .  S
O774        C777   1.264       .  A
O774       Cd779   2.433       .  S
C775        O784   1.269       .  A
C775        O780   1.267       .  A
C775       C1127   1.486       .  S
O776        C782   1.266       .  A
O776       Cd779   2.510       .  S
C777        O785   1.264   1_556  A
C777       C1155   1.480   1_556  S
C778        O783   1.269       .  A
C778        O781   1.262       .  A
C778       C1096   1.489       .  S
Cd779       O786   2.483       .  S
Cd779       O785   2.458   1_556  S
Cd779       O784   2.490       .  S
Cd779       O780   2.440       .  S
Cd779       O783   2.500       .  S
Cd779       O781   2.470       .  S
C782        O786   1.262       .  A
C782       C2737   1.493   1_556  S
O787        C790   1.265       .  A
O787       Cd792   2.432       .  S
C788        O797   1.265       .  A
C788        O793   1.262       .  A
C788       C1379   1.473       .  S
O789        C795   1.271       .  A
O789       Cd792   2.565       .  S
C790        O798   1.269       .  A
C790       C1082   1.482       .  S
C791        O796   1.266       .  A
C791        O794   1.266       .  A
C791       C2527   1.504       .  S
Cd792       O799   2.433       .  S
Cd792       O798   2.492       .  S
Cd792       O797   2.441       .  S
Cd792       O793   2.454       .  S
Cd792       O796   2.503       .  S
Cd792       O794   2.518       .  S
C795        O799   1.261       .  A
C795       C1068   1.498       .  S
O800        C803   1.265       .  A
O800       Cd805   2.440       .  S
C801        O810   1.266       .  A
C801        O806   1.261       .  A
C801       C1435   1.475       .  S
O802        C808   1.265       .  A
O802       Cd805   2.486       .  S
C803        O811   1.269       .  A
C803       C1085   1.484       .  S
C804        O809   1.269       .  A
C804        O807   1.262       .  A
C804       C1054   1.496       .  S
Cd805       O812   2.479       .  S
Cd805       O811   2.483       .  S
Cd805       O810   2.451       .  S
Cd805       O806   2.433       .  S
Cd805       O809   2.500       .  S
Cd805       O807   2.464       .  S
C808        O812   1.264       .  A
C808       C2037   1.491       .  S
C813        C814   1.549       .  S
C813        C819   1.535       .  S
C813        C817   1.535       .  S
C813       C1099   1.550       .  S
C814        H821   1.081       .  S
C814        C815   1.373       .  D
C815        C816   1.544       .  S
C815       C1071   1.495       .  S
C816        C820   1.546       .  S
C816        C818   1.543       .  S
C816        H822   1.106       .  S
C817        H823   1.084       .  S
C817        C818   1.365       .  D
C818       C1040   1.500       .  S
C819        H824   1.083       .  S
C819        C820   1.369       .  D
C820       C1026   1.505       .  S
C825        C826   1.539       .  S
C825        C831   1.546       .  S
C825        C829   1.549       .  S
C825       C1015   1.547       .  S
C826        H833   1.086       .  S
C826        C827   1.361       .  D
C827        C828   1.532       .  S
C827        C998   1.483       .  S
C828        C832   1.536       .  S
C828        C830   1.541       .  S
C828        H834   1.110       .  S
C829        H835   1.080       .  S
C829        C830   1.372       .  D
C830       C1029   1.493       .  S
C831        H836   1.086       .  S
C831        C832   1.371       .  D
C832       C1113   1.492       .  S
C837        C838   1.540       .  S
C837        C843   1.539       .  S
C837        C841   1.542       .  S
C837       C1057   1.546       .  S
C838        H845   1.084       .  S
C838        C839   1.363       .  D
C839        C840   1.542       .  S
C839       C1043   1.501       .  S
C840        C844   1.560       .  S
C840        C842   1.541       .  S
C840        H846   1.106       .  S
C841        H847   1.076       .  S
C841        C842   1.359       .  D
C842        C970   1.492       .  S
C843        H848   1.083       .  S
C843        C844   1.380       .  D
C844        C984   1.519       .  S
O849        C852   1.264       .  A
O849       Cd854   2.473       .  S
C850        O859   1.269       .  A
C850        O855   1.268       .  A
C850        C956   1.484       .  S
O851        C857   1.266       .  A
O851       Cd854   2.518       .  S
C852        O860   1.262       .  A
C852       C1519   1.480       .  S
C853        O858   1.266       .  A
C853        O856   1.263       .  A
C853       C1813   1.498       .  S
Cd854       O861   2.497       .  S
Cd854       O860   2.457       .  S
Cd854       O859   2.467       .  S
Cd854       O855   2.430       .  S
Cd854       O858   2.530       .  S
Cd854       O856   2.480       .  S
C857        O861   1.264       .  A
C857        C987   1.498       .  S
O862        C865   1.264       .  A
O862       Cd867   2.421       .  S
C863        O872   1.264       .  A
C863        O868   1.266       .  A
C863       C1211   1.481       .  S
O864        C870   1.261       .  A
O864       Cd867   2.438       .  S
C865        O873   1.270       .  A
C865        C959   1.485       .  S
C866        O871   1.260       .  A
C866        O869   1.266       .  A
C866       C2611   1.494       .  S
Cd867       O874   2.527       .  S
Cd867       O873   2.501       .  S
Cd867       O872   2.457       .  S
Cd867       O868   2.447       .  S
Cd867       O871   2.472       .  S
Cd867       O869   2.527       .  S
C870        O874   1.271       .  A
C870        C945   1.490       .  S
O875        C878   1.266   1_565  A
O875       Cd880   2.468       .  S
C876        O885   1.268       .  A
C876        O881   1.266       .  A
C876        C928   1.483       .  S
O877        C883   1.262       .  A
O877       Cd880   2.454       .  S
C878        O886   1.266       .  A
C878       C1701   1.486       .  S
C879        O884   1.267   1_565  A
C879        O882   1.262       .  A
C879       C1967   1.495   1_565  S
Cd880       O887   2.547       .  S
Cd880       O886   2.468   1_565  S
Cd880       O885   2.479       .  S
Cd880       O881   2.435       .  S
Cd880       O884   2.514   1_565  S
Cd880       O882   2.487       .  S
C883        O887   1.270       .  A
C883       C1012   1.499       .  S
O888        C891   1.266       .  A
O888       Cd893   2.431       .  S
C889        O898   1.266       .  A
C889        O894   1.262       .  A
C889       C1281   1.483       .  S
O890        C896   1.264       .  A
O890       Cd893   2.474       .  S
C891        O899   1.268       .  A
C891        C931   1.478       .  S
C892        O897   1.264       .  A
C892        O895   1.263       .  A
C892       C2877   1.493       .  S
Cd893       O900   2.465       .  S
Cd893       O899   2.475       .  S
Cd893       O898   2.467       .  S
Cd893       O894   2.454       .  S
Cd893       O897   2.478       .  S
Cd893       O895   2.481       .  S
C896        O900   1.264       .  A
C896        C914   1.483       .  S
C901        C902   1.540       .  S
C901        C907   1.536       .  S
C901        C905   1.551       .  S
C901        C942   1.542       .  S
C902        H909   1.085       .  S
C902        C903   1.371       .  D
C903        C904   1.544       .  S
C903        C917   1.491       .  S
C904        C908   1.540       .  S
C904        C906   1.531       .  S
C904        H910   1.108       .  S
C905        H911   1.081       .  S
C905        C906   1.365       .  D
C906       C1001   1.484       .  S
C907        H912   1.084       .  S
C907        C908   1.366       .  D
C908        C973   1.498       .  S
C913        C914   1.405       .  A
C913        C918   1.410       .  A
C913        H920   1.084       .  S
C914        C915   1.417       .  A
C915        C916   1.397       .  A
C915        N922   1.433       .  S
C916        C917   1.402       .  A
C916        H921   1.084       .  S
C917        C918   1.414       .  A
C918        N919   1.437       .  S
N919        H923   1.045       .  S
N919        H924   1.046       .  S
N922        H925   1.045       .  S
N922        H926   1.046       .  S
C927        C928   1.405       .  A
C927        C932   1.403       .  A
C927        H934   1.084       .  S
C928        C929   1.412       .  A
C929        C930   1.405       .  A
C929        N936   1.432       .  S
C930        C931   1.404       .  A
C930        H935   1.084       .  S
C931        C932   1.410       .  A
C932        N933   1.438       .  S
N933        H937   1.045       .  S
N933        H938   1.046       .  S
N936        H939   1.045       .  S
N936        H940   1.046       .  S
C941        C942   1.415       .  A
C941        C946   1.408       .  A
C941        H948   1.076       .  S
C942        C943   1.417       .  A
C943        C944   1.403       .  A
C943        N950   1.433       .  S
C944        C945   1.405       .  A
C944        H949   1.084       .  S
C945        C946   1.406       .  A
C946        N947   1.432       .  S
N947        H951   1.045       .  S
N947        H952   1.046       .  S
N950        H953   1.046       .  S
N950        H954   1.046       .  S
C955        C956   1.403       .  A
C955        C960   1.399       .  A
C955        H962   1.084       .  S
C956        C957   1.415       .  A
C957        C958   1.410       .  A
C957        N964   1.437       .  S
C958        C959   1.405       .  A
C958        H963   1.083       .  S
C959        C960   1.412       .  A
C960        N961   1.433       .  S
N961        H965   1.045       .  S
N961        H966   1.046       .  S
N964        H967   1.048       .  S
N964        H968   1.043       .  S
C969        C970   1.398       .  A
C969        C974   1.403       .  A
C969        H976   1.076       .  S
C970        C971   1.420       .  A
C971        C972   1.399       .  A
C971        N978   1.434       .  S
C972        C973   1.406       .  A
C972        H977   1.081       .  S
C973        C974   1.418       .  A
C974        N975   1.438       .  S
N975        H979   1.048       .  S
N975        H980   1.044       .  S
N978        H981   1.048       .  S
N978        H982   1.039       .  S
C983        C984   1.409       .  A
C983        C988   1.409       .  A
C983        H990   1.074       .  S
C984        C985   1.419       .  A
C985        C986   1.412       .  A
C985        N992   1.431       .  S
C986        C987   1.404       .  A
C986        H991   1.084       .  S
C987        C988   1.412       .  A
C988        N989   1.433       .  S
N989        H993   1.046       .  S
N989        H994   1.046       .  S
N992        H995   1.046       .  S
N992        H996   1.046       .  S
C997        C998   1.403       .  A
C997       C1002   1.404       .  A
C997       H1004   1.084       .  S
C998        C999   1.414       .  A
C999       C1000   1.401       .  A
C999       N1006   1.433       .  S
C1000      C1001   1.403       .  A
C1000      H1005   1.084       .  S
C1001      C1002   1.409       .  A
C1002      N1003   1.432       .  S
N1003      H1007   1.046       .  S
N1003      H1008   1.045       .  S
N1006      H1009   1.045       .  S
N1006      H1010   1.044       .  S
C1011      C1012   1.406       .  A
C1011      C1016   1.404       .  A
C1011      H1018   1.084       .  S
C1012      C1013   1.411       .  A
C1013      C1014   1.413       .  A
C1013      N1020   1.432       .  S
C1014      C1015   1.416       .  A
C1014      H1019   1.077       .  S
C1015      C1016   1.416       .  A
C1016      N1017   1.433       .  S
N1017      H1021   1.045       .  S
N1017      H1022   1.046       .  S
N1020      H1023   1.046       .  S
N1020      H1024   1.046       .  S
C1025      C1026   1.408       .  A
C1025      C1030   1.405       .  A
C1025      H1032   1.080       .  S
C1026      C1027   1.419       .  A
C1027      C1028   1.402       .  A
C1027      N1034   1.432       .  S
C1028      C1029   1.402       .  A
C1028      H1033   1.083       .  S
C1029      C1030   1.411       .  A
C1030      N1031   1.432       .  S
N1031      H1035   1.046       .  S
N1031      H1036   1.046       .  S
N1034      H1037   1.045       .  S
N1034      H1038   1.046       .  S
C1039      C1040   1.404       .  A
C1039      C1044   1.410       .  A
C1039      H1046   1.083       .  S
C1040      C1041   1.417       .  A
C1041      C1042   1.404       .  A
C1041      N1048   1.436       .  S
C1042      C1043   1.402       .  A
C1042      H1047   1.082       .  S
C1043      C1044   1.421       .  A
C1044      N1045   1.437       .  S
N1045      H1049   1.049       .  S
N1045      H1050   1.042       .  S
N1048      H1051   1.044       .  S
N1048      H1052   1.047       .  S
C1053      C1054   1.409       .  A
C1053      C1058   1.407       .  A
C1053      H1060   1.084       .  S
C1054      C1055   1.414       .  A
C1055      C1056   1.401       .  A
C1055      N1062   1.432       .  S
C1056      C1057   1.415       .  A
C1056      H1061   1.075       .  S
C1057      C1058   1.415       .  A
C1058      N1059   1.433       .  S
N1059      H1063   1.046       .  S
N1059      H1064   1.045       .  S
N1062      H1065   1.047       .  S
N1062      H1066   1.043       .  S
C1067      C1068   1.408       .  A
C1067      C1072   1.398       .  A
C1067      H1074   1.084       .  S
C1068      C1069   1.413       .  A
C1069      C1070   1.416       .  A
C1069      N1076   1.431       .  S
C1070      C1071   1.408       .  A
C1070      H1075   1.083       .  S
C1071      C1072   1.413       .  A
C1072      N1073   1.433       .  S
N1073      H1077   1.043       .  S
N1073      H1078   1.046       .  S
N1076      H1079   1.046       .  S
N1076      H1080   1.045       .  S
C1081      C1082   1.404       .  A
C1081      C1086   1.402       .  A
C1081      H1088   1.084       .  S
C1082      C1083   1.413       .  A
C1083      C1084   1.409       .  A
C1083      N1090   1.437       .  S
C1084      C1085   1.405       .  A
C1084      H1089   1.083       .  S
C1085      C1086   1.411       .  A
C1086      N1087   1.433       .  S
N1087      H1091   1.046       .  S
N1087      H1092   1.046       .  S
N1090      H1093   1.045       .  S
N1090      H1094   1.046       .  S
C1095      C1096   1.396       .  A
C1095      C1100   1.398       .  A
C1095      H1102   1.084       .  S
C1096      C1097   1.412       .  A
C1097      C1098   1.413       .  A
C1097      N1104   1.438       .  S
C1098      C1099   1.413       .  A
C1098      H1103   1.076       .  S
C1099      C1100   1.433       .  A
C1100      N1101   1.434       .  S
N1101      H1105   1.038       .  S
N1101      H1106   1.044       .  S
N1104      H1107   1.047       .  S
N1104      H1108   1.044       .  S
C1109      C1110   1.409       .  A
C1109      C1114   1.402       .  A
C1109      H1116   1.084       .  S
C1110      C1111   1.417       .  A
C1111      C1112   1.417       .  A
C1111      N1118   1.437       .  S
C1112      C1113   1.406       .  A
C1112      H1117   1.084       .  S
C1113      C1114   1.405       .  A
C1114      N1115   1.433       .  S
N1115      H1119   1.045       .  S
N1115      H1120   1.046       .  S
N1118      H1121   1.045       .  S
N1118      H1122   1.046       .  S
C1123      C1124   1.406       .  A
C1123      C1128   1.408       .  A
C1123      H1130   1.084       .  S
C1124      C1125   1.414       .  A
C1125      C1126   1.402       .  A
C1125      N1132   1.433       .  S
C1126      C1127   1.403       .  A
C1126      H1131   1.084       .  S
C1127      C1128   1.413       .  A
C1128      N1129   1.432       .  S
N1129      H1133   1.045       .  S
N1129      H1134   1.046       .  S
N1132      H1135   1.045       .  S
N1132      H1136   1.046       .  S
C1137      C1138   1.406       .  A
C1137      C1142   1.403       .  A
C1137      H1144   1.084       .  S
C1138      C1139   1.410       .  A
C1139      C1140   1.410       .  A
C1139      N1146   1.438       .  S
C1140      C1141   1.416       .  A
C1140      H1145   1.074       .  S
C1141      C1142   1.415       .  A
C1142      N1143   1.433       .  S
N1143      H1147   1.046       .  S
N1143      H1148   1.045       .  S
N1146      H1149   1.045       .  S
N1146      H1150   1.046       .  S
C1151      C1152   1.404       .  A
C1151      C1156   1.398       .  A
C1151      H1158   1.084       .  S
C1152      C1153   1.406       .  A
C1153      C1154   1.398       .  A
C1153      N1160   1.432       .  S
C1154      C1155   1.406       .  A
C1154      H1159   1.084   1_554  S
C1155      C1156   1.419       .  A
C1156      N1157   1.433       .  S
N1157      H1161   1.044       .  S
N1157      H1162   1.046       .  S
N1160      H1163   1.045   1_554  S
N1160      H1164   1.046       .  S
C1165      C1166   1.404       .  A
C1165      C1170   1.396       .  A
C1165      H1172   1.084       .  S
C1166      C1167   1.415       .  A
C1167      C1168   1.411       .  A
C1167      N1174   1.437       .  S
C1168      C1169   1.407       .  A
C1168      H1173   1.083       .  S
C1169      C1170   1.418       .  A
C1170      N1171   1.433       .  S
N1171      H1175   1.042       .  S
N1171      H1176   1.048       .  S
N1174      H1177   1.047       .  S
N1174      H1178   1.044       .  S
C1179      C1180   1.405       .  A
C1179      C1184   1.400       .  A
C1179      H1186   1.084       .  S
C1180      C1181   1.410       .  A
C1181      C1182   1.406       .  A
C1181      N1188   1.432       .  S
C1182      C1183   1.404       .  A
C1182      H1187   1.080       .  S
C1183      C1184   1.410       .  A
C1184      N1185   1.433       .  S
N1185      H1189   1.045       .  S
N1185      H1190   1.046       .  S
N1188      H1191   1.046       .  S
N1188      H1192   1.045       .  S
C1193      C1194   1.400       .  A
C1193      C1198   1.401       .  A
C1193      H1200   1.084       .  S
C1194      C1195   1.418       .  A
C1195      C1196   1.415       .  A
C1195      N1202   1.437       .  S
C1196      C1197   1.408       .  A
C1196      H1201   1.079       .  S
C1197      C1198   1.422       .  A
C1198      N1199   1.434       .  S
N1199      H1203   1.046       .  S
N1199      H1204   1.046       .  S
N1202      H1205   1.044       .  S
N1202      H1206   1.047       .  S
C1207      C1208   1.402       .  A
C1207      C1212   1.403       .  A
C1207      H1214   1.084       .  S
C1208      C1209   1.413       .  A
C1209      C1210   1.398       .  A
C1209      N1216   1.434       .  S
C1210      C1211   1.403       .  A
C1210      H1215   1.084       .  S
C1211      C1212   1.413       .  A
C1212      N1213   1.432       .  S
N1213      H1217   1.047       .  S
N1213      H1218   1.044       .  S
N1216      H1219   1.046       .  S
N1216      H1220   1.046       .  S
C1221      C1222   1.405       .  A
C1221      C1226   1.412       .  A
C1221      H1228   1.083       .  S
C1222      C1223   1.421       .  A
C1223      C1224   1.408       .  A
C1223      N1230   1.439       .  S
C1224      C1225   1.403       .  A
C1224      H1229   1.083       .  S
C1225      C1226   1.415       .  A
C1226      N1227   1.437       .  S
N1227      H1231   1.045       .  S
N1227      H1232   1.045       .  S
N1230      H1233   1.045       .  S
N1230      H1234   1.047       .  S
C1235      C1236   1.406       .  A
C1235      C1240   1.407       .  A
C1235      H1242   1.084       .  S
C1236      C1237   1.416       .  A
C1237      C1238   1.407       .  A
C1237      N1244   1.438       .  S
C1238      C1239   1.404       .  A
C1238      H1243   1.084       .  S
C1239      C1240   1.412       .  A
C1240      N1241   1.432       .  S
N1241      H1245   1.046       .  S
N1241      H1246   1.046       .  S
N1244      H1247   1.046       .  S
N1244      H1248   1.045       .  S
C1249      C1250   1.402       .  A
C1249      C1254   1.402       .  A
C1249      H1256   1.084       .  S
C1250      C1251   1.407       .  A
C1251      C1252   1.408       .  A
C1251      N1258   1.430       .  S
C1252      C1253   1.403       .  A
C1252      H1257   1.084       .  S
C1253      C1254   1.412       .  A
C1254      N1255   1.439       .  S
N1255      H1259   1.046       .  S
N1255      H1260   1.045       .  S
N1258      H1261   1.046       .  S
N1258      H1262   1.045       .  S
C1263      C1264   1.406       .  A
C1263      C1268   1.416       .  A
C1263      H1270   1.083       .  S
C1264      C1265   1.415       .  A
C1265      C1266   1.396       .  A
C1265      N1272   1.433       .  S
C1266      C1267   1.403       .  A
C1266      H1271   1.079       .  S
C1267      C1268   1.418       .  A
C1268      N1269   1.437       .  S
N1269      H1273   1.044       .  S
N1269      H1274   1.047       .  S
N1272      H1275   1.045       .  S
N1272      H1276   1.046       .  S
C1277      C1278   1.406       .  A
C1277      C1282   1.401       .  A
C1277      H1284   1.084       .  S
C1278      C1279   1.419       .  A
C1279      C1280   1.398       .  A
C1279      N1286   1.432       .  S
C1280      C1281   1.404       .  A
C1280      H1285   1.084       .  S
C1281      C1282   1.412       .  A
C1282      N1283   1.433       .  S
N1283      H1287   1.045       .  S
N1283      H1288   1.046       .  S
N1286      H1289   1.046       .  S
N1286      H1290   1.044       .  S
C1291      C1292   1.408       .  A
C1291      C1296   1.403       .  A
C1291      H1298   1.084       .  S
C1292      C1293   1.416       .  A
C1293      C1294   1.407       .  A
C1293      N1300   1.432       .  S
C1294      C1295   1.415       .  A
C1294      H1299   1.076       .  S
C1295      C1296   1.414       .  A
C1296      N1297   1.433       .  S
N1297      H1301   1.045       .  S
N1297      H1302   1.046       .  S
N1300      H1303   1.045       .  S
N1300      H1304   1.045       .  S
C1305      C1306   1.405       .  A
C1305      C1310   1.409       .  A
C1305      H1312   1.084       .  S
C1306      C1307   1.415       .  A
C1307      C1308   1.398       .  A
C1307      N1314   1.433       .  S
C1308      C1309   1.405       .  A
C1308      H1313   1.084       .  S
C1309      C1310   1.415       .  A
C1310      N1311   1.438       .  S
N1311      H1315   1.046       .  S
N1311      H1316   1.045       .  S
N1314      H1317   1.045       .  S
N1314      H1318   1.044       .  S
C1319      C1320   1.405       .  A
C1319      C1324   1.399       .  A
C1319      H1326   1.081       .  S
C1320      C1321   1.419       .  A
C1321      C1322   1.398       .  A
C1321      N1328   1.433       .  S
C1322      C1323   1.398       .  A
C1322      H1327   1.084       .  S
C1323      C1324   1.402       .  A
C1324      N1325   1.432       .  S
N1325      H1329   1.045       .  S
N1325      H1330   1.045       .  S
N1328      H1331   1.043       .  S
N1328      H1332   1.044       .  S
C1333      C1334   1.406       .  A
C1333      C1338   1.398       .  A
C1333      H1340   1.082       .  S
C1334      C1335   1.418       .  A
C1335      C1336   1.407       .  A
C1335      N1342   1.437       .  S
C1336      C1337   1.400       .  A
C1336      H1341   1.084       .  S
C1337      C1338   1.413       .  A
C1338      N1339   1.439       .  S
N1339      H1343   1.043       .  S
N1339      H1344   1.045       .  S
N1342      H1345   1.042       .  S
N1342      H1346   1.049       .  S
C1347      C1348   1.407       .  A
C1347      C1352   1.409       .  A
C1347      H1354   1.083       .  S
C1348      C1349   1.420       .  A
C1349      C1350   1.402       .  A
C1349      N1356   1.433       .  S
C1350      C1351   1.397       .  A
C1350      H1355   1.084       .  S
C1351      C1352   1.411       .  A
C1352      N1353   1.433       .  S
N1353      H1357   1.045       .  S
N1353      H1358   1.046       .  S
N1356      H1359   1.046       .  S
N1356      H1360   1.046       .  S
C1361      C1362   1.404       .  A
C1361      C1366   1.399       .  A
C1361      H1368   1.084       .  S
C1362      C1363   1.410       .  A
C1363      C1364   1.415       .  A
C1363      N1370   1.437       .  S
C1364      C1365   1.416       .  A
C1364      H1369   1.076       .  S
C1365      C1366   1.415       .  A
C1366      N1367   1.434       .  S
N1367      H1371   1.045       .  S
N1367      H1372   1.046       .  S
N1370      H1373   1.045       .  S
N1370      H1374   1.046       .  S
C1375      C1376   1.404   1_556  A
C1375      C1380   1.395       .  A
C1375      H1382   1.084       .  S
C1376      C1377   1.414       .  A
C1377      C1378   1.403       .  A
C1377      N1384   1.438       .  S
C1378      C1379   1.402   1_554  A
C1378      H1383   1.084       .  S
C1379      C1380   1.415       .  A
C1380      N1381   1.433       .  S
N1381      H1385   1.046       .  S
N1381      H1386   1.045       .  S
N1384      H1387   1.045       .  S
N1384      H1388   1.046       .  S
C1389      C1390   1.400       .  A
C1389      C1394   1.400       .  A
C1389      H1396   1.085       .  S
C1390      C1391   1.415       .  A
C1391      C1392   1.411       .  A
C1391      N1398   1.431       .  S
C1392      C1393   1.409       .  A
C1392      H1397   1.083       .  S
C1393      C1394   1.413       .  A
C1394      N1395   1.429       .  S
N1395      H1399   1.045       .  S
N1395      H1400   1.046       .  S
N1398      H1401   1.044       .  S
N1398      H1402   1.046       .  S
C1403      C1404   1.406       .  A
C1403      C1408   1.409       .  A
C1403      H1410   1.083       .  S
C1404      C1405   1.417       .  A
C1405      C1406   1.398       .  A
C1405      N1412   1.433       .  S
C1406      C1407   1.404       .  A
C1406      H1411   1.084       .  S
C1407      C1408   1.414       .  A
C1408      N1409   1.438       .  S
N1409      H1413   1.044       .  S
N1409      H1414   1.046       .  S
N1412      H1415   1.046       .  S
N1412      H1416   1.043       .  S
C1417      C1418   1.407       .  A
C1417      C1422   1.413       .  A
C1417      H1424   1.083       .  S
C1418      C1419   1.410   1_556  A
C1419      C1420   1.403       .  A
C1419      N1426   1.432       .  S
C1420      C1421   1.405       .  A
C1420      H1425   1.084       .  S
C1421      C1422   1.417   1_554  A
C1422      N1423   1.438       .  S
N1423      H1427   1.046       .  S
N1423      H1428   1.046   1_556  S
N1426      H1429   1.046       .  S
N1426      H1430   1.045       .  S
C1431      C1432   1.402       .  A
C1431      C1436   1.394       .  A
C1431      H1438   1.084       .  S
C1432      C1433   1.412       .  A
C1433      C1434   1.399       .  A
C1433      N1440   1.433       .  S
C1434      C1435   1.402       .  A
C1434      H1439   1.084       .  S
C1435      C1436   1.418       .  A
C1436      N1437   1.433       .  S
N1437      H1441   1.044       .  S
N1437      H1442   1.046       .  S
N1440      H1443   1.046       .  S
N1440      H1444   1.045       .  S
C1445      C1446   1.405       .  A
C1445      C1450   1.401       .  A
C1445      H1452   1.084       .  S
C1446      C1447   1.404       .  A
C1447      C1448   1.404       .  A
C1447      N1454   1.432       .  S
C1448      C1449   1.417       .  A
C1448      H1453   1.073       .  S
C1449      C1450   1.427       .  A
C1450      N1451   1.435       .  S
N1451      H1455   1.039       .  S
N1451      H1456   1.046       .  S
N1454      H1457   1.045       .  S
N1454      H1458   1.046       .  S
C1459      C1460   1.403       .  A
C1459      C1464   1.408       .  A
C1459      H1466   1.084       .  S
C1460      C1461   1.415       .  A
C1461      C1462   1.399       .  A
C1461      N1468   1.433       .  S
C1462      C1463   1.406       .  A
C1462      H1467   1.084       .  S
C1463      C1464   1.415       .  A
C1464      N1465   1.437       .  S
N1465      H1469   1.048       .  S
N1465      H1470   1.044       .  S
N1468      H1471   1.047       .  S
N1468      H1472   1.043       .  S
C1473      C1474   1.403       .  A
C1473      C1478   1.411       .  A
C1473      H1480   1.084       .  S
C1474      C1475   1.403       .  A
C1475      C1476   1.401       .  A
C1475      N1482   1.432       .  S
C1476      C1477   1.405       .  A
C1476      H1481   1.083       .  S
C1477      C1478   1.414       .  A
C1478      N1479   1.437       .  S
N1479      H1483   1.045       .  S
N1479      H1484   1.046       .  S
N1482      H1485   1.045       .  S
N1482      H1486   1.046       .  S
C1487      C1488   1.409       .  A
C1487      C1492   1.415       .  A
C1487      H1494   1.083       .  S
C1488      C1489   1.415       .  A
C1489      C1490   1.402       .  A
C1489      N1496   1.433       .  S
C1490      C1491   1.402       .  A
C1490      H1495   1.083       .  S
C1491      C1492   1.414       .  A
C1492      N1493   1.437       .  S
N1493      H1497   1.044       .  S
N1493      H1498   1.047       .  S
N1496      H1499   1.046       .  S
N1496      H1500   1.046       .  S
C1501      C1502   1.407       .  A
C1501      C1506   1.405       .  A
C1501      H1508   1.084       .  S
C1502      C1503   1.415       .  A
C1503      C1504   1.411       .  A
C1503      N1510   1.437       .  S
C1504      C1505   1.407       .  A
C1504      H1509   1.083       .  S
C1505      C1506   1.412       .  A
C1506      N1507   1.433       .  S
N1507      H1511   1.045       .  S
N1507      H1512   1.046       .  S
N1510      H1513   1.045       .  S
N1510      H1514   1.046       .  S
C1515      C1516   1.403       .  A
C1515      C1520   1.398       .  A
C1515      H1522   1.084       .  S
C1516      C1517   1.412       .  A
C1517      C1518   1.405       .  A
C1517      N1524   1.438       .  S
C1518      C1519   1.406       .  A
C1518      H1523   1.083       .  S
C1519      C1520   1.409       .  A
C1520      N1521   1.432       .  S
N1521      H1525   1.046       .  S
N1521      H1526   1.046       .  S
N1524      H1527   1.046       .  S
N1524      H1528   1.045       .  S
C1529      C1530   1.406       .  A
C1529      C1534   1.408       .  A
C1529      H1536   1.083       .  S
C1530      C1531   1.426       .  A
C1531      C1532   1.398       .  A
C1531      N1538   1.433       .  S
C1532      C1533   1.398       .  A
C1532      H1537   1.084       .  S
C1533      C1534   1.409       .  A
C1534      N1535   1.432       .  S
N1535      H1539   1.045       .  S
N1535      H1540   1.046       .  S
N1538      H1541   1.045       .  S
N1538      H1542   1.046       .  S
C1543      C1544   1.406       .  A
C1543      C1548   1.404       .  A
C1543      H1550   1.084       .  S
C1544      C1545   1.410       .  A
C1545      C1546   1.404       .  A
C1545      N1552   1.432       .  S
C1546      C1547   1.405       .  A
C1546      H1551   1.084       .  S
C1547      C1548   1.413       .  A
C1548      N1549   1.438       .  S
N1549      H1553   1.046       .  S
N1549      H1554   1.045       .  S
N1552      H1555   1.045       .  S
N1552      H1556   1.046       .  S
C1557      C1558   1.396       .  A
C1557      C1562   1.404       .  A
C1557      H1564   1.084       .  S
C1558      C1559   1.403       .  A
C1559      C1560   1.397       .  A
C1559      N1566   1.433       .  S
C1560      C1561   1.418       .  A
C1560      H1565   1.080       .  S
C1561      C1562   1.423       .  A
C1562      N1563   1.429       .  S
N1563      H1567   1.045       .  S
N1563      H1568   1.045       .  S
N1566      H1569   1.045       .  S
N1566      H1570   1.045       .  S
C1571      C1572   1.410       .  A
C1571      C1576   1.408       .  A
C1571      H1578   1.077       .  S
C1572      C1573   1.421       .  A
C1573      C1574   1.405       .  A
C1573      N1580   1.434       .  S
C1574      C1575   1.401       .  A
C1574      H1579   1.084       .  S
C1575      C1576   1.412       .  A
C1576      N1577   1.432       .  S
N1577      H1581   1.046       .  S
N1577      H1582   1.046       .  S
N1580      H1583   1.045       .  S
N1580      H1584   1.046       .  S
C1585      C1586   1.409       .  A
C1585      C1590   1.413   1_545  A
C1585      H1592   1.083       .  S
C1586      C1587   1.421   1_556  A
C1587      C1588   1.404       .  A
C1587      N1594   1.432       .  S
C1588      C1589   1.406   1_545  A
C1588      H1593   1.084       .  S
C1589      C1590   1.415   1_554  A
C1590      N1591   1.437       .  S
N1591      H1595   1.046       .  S
N1591      H1596   1.046       .  S
N1594      H1597   1.045       .  S
N1594      H1598   1.045       .  S
C1599      C1600   1.405       .  A
C1599      C1604   1.403       .  A
C1599      H1606   1.084       .  S
C1600      C1601   1.413       .  A
C1601      C1602   1.399       .  A
C1601      N1608   1.433       .  S
C1602      C1603   1.403       .  A
C1602      H1607   1.084       .  S
C1603      C1604   1.411       .  A
C1604      N1605   1.432   1_545  S
N1605      H1609   1.045       .  S
N1605      H1610   1.046       .  S
N1608      H1611   1.046       .  S
N1608      H1612   1.046       .  S
C1613      C1614   1.406       .  A
C1613      C1618   1.412       .  A
C1613      H1620   1.084       .  S
C1614      C1615   1.418       .  A
C1615      C1616   1.409       .  A
C1615      N1622   1.438       .  S
C1616      C1617   1.407       .  A
C1616      H1621   1.082       .  S
C1617      C1618   1.416       .  A
C1618      N1619   1.431       .  S
N1619      H1623   1.045       .  S
N1619      H1624   1.046       .  S
N1622      H1625   1.046       .  S
N1622      H1626   1.046       .  S
C1627      C1628   1.408       .  A
C1627      C1632   1.410       .  A
C1627      H1634   1.083       .  S
C1628      C1629   1.419       .  A
C1629      C1630   1.396       .  A
C1629      N1636   1.433       .  S
C1630      C1631   1.402       .  A
C1630      H1635   1.084       .  S
C1631      C1632   1.413       .  A
C1632      N1633   1.438       .  S
N1633      H1637   1.046       .  S
N1633      H1638   1.045       .  S
N1636      H1639   1.045       .  S
N1636      H1640   1.044       .  S
C1641      C1642   1.405       .  A
C1641      C1646   1.403       .  A
C1641      H1648   1.083       .  S
C1642      C1643   1.411       .  A
C1643      C1644   1.406       .  A
C1643      N1650   1.432       .  S
C1644      C1645   1.408       .  A
C1644      H1649   1.083       .  S
C1645      C1646   1.414       .  A
C1646      N1647   1.432       .  S
N1647      H1651   1.046       .  S
N1647      H1652   1.046       .  S
N1650      H1653   1.045       .  S
N1650      H1654   1.046       .  S
C1655      C1656   1.405       .  A
C1655      C1660   1.404       .  A
C1655      H1662   1.084       .  S
C1656      C1657   1.421       .  A
C1657      C1658   1.399       .  A
C1657      N1664   1.433       .  S
C1658      C1659   1.398       .  A
C1658      H1663   1.084       .  S
C1659      C1660   1.408       .  A
C1660      N1661   1.433       .  S
N1661      H1665   1.045       .  S
N1661      H1666   1.044       .  S
N1664      H1667   1.046       .  S
N1664      H1668   1.041       .  S
C1669      C1670   1.402       .  A
C1669      C1674   1.404       .  A
C1669      H1676   1.084       .  S
C1670      C1671   1.415       .  A
C1671      C1672   1.410       .  A
C1671      N1678   1.433       .  S
C1672      C1673   1.410       .  A
C1672      H1677   1.078       .  S
C1673      C1674   1.421       .  A
C1674      N1675   1.434       .  S
N1675      H1679   1.046       .  S
N1675      H1680   1.045       .  S
N1678      H1681   1.046       .  S
N1678      H1682   1.045       .  S
C1683      C1684   1.405       .  A
C1683      C1688   1.406       .  A
C1683      H1690   1.084       .  S
C1684      C1685   1.416       .  A
C1685      C1686   1.416   1_545  A
C1685      N1692   1.437       .  S
C1686      C1687   1.409       .  A
C1686      H1691   1.083       .  S
C1687      C1688   1.414   1_565  A
C1688      N1689   1.432       .  S
N1689      H1693   1.045       .  S
N1689      H1694   1.046       .  S
N1692      H1695   1.046       .  S
N1692      H1696   1.046   1_545  S
C1697      C1698   1.404       .  A
C1697      C1702   1.403       .  A
C1697      H1704   1.084       .  S
C1698      C1699   1.411       .  A
C1699      C1700   1.407       .  A
C1699      N1706   1.438       .  S
C1700      C1701   1.407       .  A
C1700      H1705   1.083   1_545  S
C1701      C1702   1.412       .  A
C1702      N1703   1.432       .  S
N1703      H1707   1.046       .  S
N1703      H1708   1.046       .  S
N1706      H1709   1.046       .  S
N1706      H1710   1.045   1_545  S
C1711      C1712   1.405       .  A
C1711      C1716   1.412       .  A
C1711      H1718   1.083       .  S
C1712      C1713   1.415       .  A
C1713      C1714   1.405       .  A
C1713      N1720   1.433       .  S
C1714      C1715   1.407       .  A
C1714      H1719   1.082       .  S
C1715      C1716   1.417       .  A
C1716      N1717   1.431       .  S
N1717      H1721   1.046       .  S
N1717      H1722   1.045       .  S
N1720      H1723   1.046       .  S
N1720      H1724   1.046       .  S
C1725      C1726   1.399       .  A
C1725      C1730   1.404       .  A
C1725      H1732   1.084       .  S
C1726      C1727   1.414       .  A
C1727      C1728   1.415       .  A
C1727      N1734   1.438       .  S
C1728      C1729   1.411       .  A
C1728      H1733   1.078       .  S
C1729      C1730   1.421       .  A
C1730      N1731   1.433       .  S
N1731      H1735   1.046       .  S
N1731      H1736   1.046       .  S
N1734      H1737   1.044       .  S
N1734      H1738   1.047       .  S
C1739      C1740   1.406       .  A
C1739      C1744   1.410       .  A
C1739      H1746   1.084       .  S
C1740      C1741   1.415       .  A
C1741      C1742   1.399       .  A
C1741      N1748   1.433       .  S
C1742      C1743   1.405       .  A
C1742      H1747   1.084       .  S
C1743      C1744   1.415       .  A
C1744      N1745   1.438       .  S
N1745      H1749   1.046       .  S
N1745      H1750   1.045       .  S
N1748      H1751   1.045       .  S
N1748      H1752   1.044       .  S
C1753      C1754   1.407       .  A
C1753      C1758   1.408       .  A
C1753      H1760   1.084       .  S
C1754      C1755   1.412       .  A
C1755      C1756   1.407   1_545  A
C1755      N1762   1.432       .  S
C1756      C1757   1.406       .  A
C1756      H1761   1.084       .  S
C1757      C1758   1.414   1_565  A
C1758      N1759   1.433       .  S
N1759      H1763   1.046       .  S
N1759      H1764   1.046       .  S
N1762      H1765   1.045   1_545  S
N1762      H1766   1.046   1_545  S
C1767      C1768   1.406       .  A
C1767      C1772   1.403       .  A
C1767      H1774   1.083       .  S
C1768      C1769   1.413       .  A
C1769      C1770   1.403       .  A
C1769      N1776   1.438       .  S
C1770      C1771   1.403       .  A
C1770      H1775   1.084       .  S
C1771      C1772   1.411       .  A
C1772      N1773   1.438       .  S
N1773      H1777   1.046       .  S
N1773      H1778   1.045       .  S
N1776      H1779   1.045       .  S
N1776      H1780   1.046       .  S
C1781      C1782   1.408       .  A
C1781      C1786   1.407       .  A
C1781      H1788   1.084       .  S
C1782      C1783   1.407       .  A
C1783      C1784   1.405       .  A
C1783      N1790   1.432       .  S
C1784      C1785   1.416       .  A
C1784      H1789   1.076       .  S
C1785      C1786   1.417       .  A
C1786      N1787   1.433       .  S
N1787      H1791   1.046       .  S
N1787      H1792   1.045       .  S
N1790      H1793   1.046       .  S
N1790      H1794   1.045       .  S
C1795      C1796   1.404       .  A
C1795      C1800   1.406       .  A
C1795      H1802   1.084       .  S
C1796      C1797   1.412       .  A
C1797      C1798   1.403       .  A
C1797      N1804   1.438       .  S
C1798      C1799   1.404       .  A
C1798      H1803   1.084       .  S
C1799      C1800   1.412       .  A
C1800      N1801   1.432       .  S
N1801      H1805   1.046       .  S
N1801      H1806   1.046       .  S
N1804      H1807   1.046       .  S
N1804      H1808   1.045       .  S
C1809      C1810   1.406       .  A
C1809      C1814   1.409       .  A
C1809      H1816   1.084       .  S
C1810      C1811   1.414       .  A
C1811      C1812   1.410       .  A
C1811      N1818   1.438       .  S
C1812      C1813   1.408       .  A
C1812      H1817   1.083       .  S
C1813      C1814   1.414       .  A
C1814      N1815   1.432       .  S
N1815      H1819   1.046       .  S
N1815      H1820   1.046       .  S
N1818      H1821   1.045       .  S
N1818      H1822   1.046       .  S
C1823      C1824   1.406       .  A
C1823      C1828   1.401       .  A
C1823      H1830   1.083       .  S
C1824      C1825   1.415       .  A
C1825      C1826   1.404       .  A
C1825      N1832   1.438       .  S
C1826      C1827   1.404       .  A
C1826      H1831   1.084       .  S
C1827      C1828   1.409       .  A
C1828      N1829   1.438       .  S
N1829      H1833   1.046       .  S
N1829      H1834   1.046       .  S
N1832      H1835   1.045       .  S
N1832      H1836   1.046       .  S
C1837      C1838   1.409       .  A
C1837      C1842   1.414       .  A
C1837      H1844   1.083       .  S
C1838      C1839   1.415       .  A
C1839      C1840   1.403       .  A
C1839      N1846   1.433       .  S
C1840      C1841   1.401       .  A
C1840      H1845   1.084       .  S
C1841      C1842   1.412       .  A
C1842      N1843   1.432       .  S
N1843      H1847   1.045       .  S
N1843      H1848   1.046       .  S
N1846      H1849   1.046       .  S
N1846      H1850   1.045       .  S
C1851      C1852   1.405       .  A
C1851      C1856   1.397       .  A
C1851      H1858   1.084       .  S
C1852      C1853   1.413       .  A
C1853      C1854   1.410       .  A
C1853      N1860   1.437       .  S
C1854      C1855   1.408       .  A
C1854      H1859   1.084       .  S
C1855      C1856   1.416       .  A
C1856      N1857   1.433       .  S
N1857      H1861   1.044       .  S
N1857      H1862   1.045       .  S
N1860      H1863   1.045       .  S
N1860      H1864   1.046       .  S
C1865      C1866   1.405       .  A
C1865      C1870   1.408       .  A
C1865      H1872   1.084       .  S
C1866      C1867   1.410       .  A
C1867      C1868   1.403       .  A
C1867      N1874   1.432       .  S
C1868      C1869   1.404       .  A
C1868      H1873   1.084       .  S
C1869      C1870   1.411       .  A
C1870      N1871   1.432       .  S
N1871      H1875   1.045       .  S
N1871      H1876   1.046       .  S
N1874      H1877   1.046       .  S
N1874      H1878   1.045       .  S
C1879      C1880   1.401       .  A
C1879      C1884   1.404       .  A
C1879      H1886   1.084       .  S
C1880      C1881   1.413       .  A
C1881      C1882   1.411       .  A
C1881      N1888   1.432       .  S
C1882      C1883   1.407       .  A
C1882      H1887   1.083       .  S
C1883      C1884   1.418       .  A
C1884      N1885   1.433       .  S
N1885      H1889   1.046       .  S
N1885      H1890   1.046       .  S
N1888      H1891   1.046       .  S
N1888      H1892   1.045       .  S
C1893      C1894   1.403       .  A
C1893      C1898   1.401       .  A
C1893      H1900   1.083       .  S
C1894      C1895   1.417       .  A
C1895      C1896   1.405       .  A
C1895      N1902   1.438       .  S
C1896      C1897   1.403       .  A
C1896      H1901   1.082       .  S
C1897      C1898   1.415       .  A
C1898      N1899   1.432       .  S
N1899      H1903   1.046       .  S
N1899      H1904   1.046       .  S
N1902      H1905   1.041       .  S
N1902      H1906   1.049       .  S
C1907      C1908   1.406       .  A
C1907      C1912   1.398       .  A
C1907      H1914   1.082       .  S
C1908      C1909   1.416       .  A
C1909      C1910   1.412       .  A
C1909      N1916   1.431       .  S
C1910      C1911   1.407       .  A
C1910      H1915   1.084       .  S
C1911      C1912   1.420       .  A
C1912      N1913   1.433       .  S
N1913      H1917   1.043       .  S
N1913      H1918   1.048       .  S
N1916      H1919   1.046       .  S
N1916      H1920   1.046       .  S
C1921      C1922   1.400       .  A
C1921      C1926   1.401       .  A
C1921      H1928   1.084       .  S
C1922      C1923   1.407       .  A
C1923      C1924   1.400       .  A
C1923      N1930   1.432       .  S
C1924      C1925   1.403       .  A
C1924      H1929   1.084       .  S
C1925      C1926   1.417       .  A
C1926      N1927   1.431       .  S
N1927      H1931   1.047       .  S
N1927      H1932   1.040       .  S
N1930      H1933   1.045       .  S
N1930      H1934   1.046       .  S
C1935      C1936   1.410       .  A
C1935      C1940   1.398       .  A
C1935      H1942   1.082       .  S
C1936      C1937   1.414       .  A
C1937      C1938   1.404       .  A
C1937      N1944   1.431       .  S
C1938      C1939   1.404       .  A
C1938      H1943   1.084       .  S
C1939      C1940   1.416       .  A
C1940      N1941   1.434       .  S
N1941      H1945   1.045       .  S
N1941      H1946   1.042       .  S
N1944      H1947   1.045       .  S
N1944      H1948   1.046       .  S
C1949      C1950   1.413       .  A
C1949      C1954   1.400       .  A
C1949      H1956   1.074       .  S
C1950      C1951   1.416       .  A
C1951      C1952   1.411       .  A
C1951      N1958   1.433       .  S
C1952      C1953   1.410       .  A
C1952      H1957   1.084       .  S
C1953      C1954   1.414       .  A
C1954      N1955   1.432       .  S
N1955      H1959   1.045       .  S
N1955      H1960   1.045       .  S
N1958      H1961   1.045       .  S
N1958      H1962   1.046       .  S
C1963      C1964   1.407       .  A
C1963      C1968   1.409       .  A
C1963      H1970   1.084       .  S
C1964      C1965   1.412   1_655  A
C1965      C1966   1.407       .  A
C1965      N1972   1.432       .  S
C1966      C1967   1.405       .  A
C1966      H1971   1.083       .  S
C1967      C1968   1.415   1_455  A
C1968      N1969   1.433   1_545  S
N1969      H1973   1.045       .  S
N1969      H1974   1.046       .  S
N1972      H1975   1.045       .  S
N1972      H1976   1.046       .  S
C1977      C1978   1.406       .  A
C1977      C1982   1.406       .  A
C1977      H1984   1.083       .  S
C1978      C1979   1.411   1_655  A
C1979      C1980   1.404       .  A
C1979      N1986   1.432       .  S
C1980      C1981   1.405       .  A
C1980      H1985   1.084       .  S
C1981      C1982   1.413   1_455  A
C1982      N1983   1.438       .  S
N1983      H1987   1.046       .  S
N1983      H1988   1.046       .  S
N1986      H1989   1.046       .  S
N1986      H1990   1.046       .  S
C1991      C1992   1.410       .  A
C1991      C1996   1.415       .  A
C1991      H1998   1.083       .  S
C1992      C1993   1.413       .  A
C1993      C1994   1.400       .  A
C1993      N2000   1.432       .  S
C1994      C1995   1.406       .  A
C1994      H1999   1.084       .  S
C1995      C1996   1.414       .  A
C1996      N1997   1.431       .  S
N1997      H2001   1.045       .  S
N1997      H2002   1.046       .  S
N2000      H2003   1.045       .  S
N2000      H2004   1.046       .  S
C2005      C2006   1.407       .  A
C2005      C2010   1.405       .  A
C2005      H2012   1.084       .  S
C2006      C2007   1.419       .  A
C2007      C2008   1.397       .  A
C2007      N2014   1.433       .  S
C2008      C2009   1.403       .  A
C2008      H2013   1.084       .  S
C2009      C2010   1.410       .  A
C2010      N2011   1.432       .  S
N2011      H2015   1.046       .  S
N2011      H2016   1.046       .  S
N2014      H2017   1.045       .  S
N2014      H2018   1.044       .  S
C2019      C2020   1.405       .  A
C2019      C2024   1.399       .  A
C2019      H2026   1.084       .  S
C2020      C2021   1.412       .  A
C2021      C2022   1.415       .  A
C2021      N2028   1.437       .  S
C2022      C2023   1.416       .  A
C2022      H2027   1.078       .  S
C2023      C2024   1.415       .  A
C2024      N2025   1.433       .  S
N2025      H2029   1.046       .  S
N2025      H2030   1.046       .  S
N2028      H2031   1.044       .  S
N2028      H2032   1.047       .  S
C2033      C2034   1.407   1_455  A
C2033      C2038   1.406       .  A
C2033      H2040   1.084       .  S
C2034      C2035   1.413       .  A
C2035      C2036   1.405   1_655  A
C2035      N2042   1.432       .  S
C2036      C2037   1.406       .  A
C2036      H2041   1.084   1_455  S
C2037      C2038   1.413       .  A
C2038      N2039   1.432       .  S
N2039      H2043   1.045       .  S
N2039      H2044   1.046       .  S
N2042      H2045   1.045       .  S
N2042      H2046   1.046       .  S
C2047      C2048   1.405       .  A
C2047      C2052   1.400   1_655  A
C2047      H2054   1.084       .  S
C2048      C2049   1.412   1_655  A
C2049      C2050   1.397       .  A
C2049      N2056   1.433       .  S
C2050      C2051   1.403       .  A
C2050      H2055   1.084       .  S
C2051      C2052   1.416       .  A
C2052      N2053   1.432       .  S
N2053      H2057   1.045       .  S
N2053      H2058   1.046   1_455  S
N2056      H2059   1.046       .  S
N2056      H2060   1.046       .  S
C2061      C2062   1.409       .  A
C2061      C2066   1.406       .  A
C2061      H2068   1.077       .  S
C2062      C2063   1.422       .  A
C2063      C2064   1.404       .  A
C2063      N2070   1.433       .  S
C2064      C2065   1.399       .  A
C2064      H2069   1.084       .  S
C2065      C2066   1.412       .  A
C2066      N2067   1.433       .  S
N2067      H2071   1.045       .  S
N2067      H2072   1.046       .  S
N2070      H2073   1.045       .  S
N2070      H2074   1.046       .  S
C2075      C2076   1.408       .  A
C2075      C2080   1.410       .  A
C2075      H2082   1.083       .  S
C2076      C2077   1.419       .  A
C2077      C2078   1.398       .  A
C2077      N2084   1.433       .  S
C2078      C2079   1.405       .  A
C2078      H2083   1.084       .  S
C2079      C2080   1.414       .  A
C2080      N2081   1.437       .  S
N2081      H2085   1.045       .  S
N2081      H2086   1.046       .  S
N2084      H2087   1.045       .  S
N2084      H2088   1.045       .  S
C2089      C2090   1.407       .  A
C2089      C2094   1.409       .  A
C2089      H2096   1.084       .  S
C2090      C2091   1.420   1_656  A
C2091      C2092   1.402   1_554  A
C2091      N2098   1.432       .  S
C2092      C2093   1.404       .  A
C2092      H2097   1.084       .  S
C2093      C2094   1.412   1_455  A
C2094      N2095   1.437       .  S
N2095      H2099   1.049       .  S
N2095      H2100   1.042       .  S
N2098      H2101   1.044       .  S
N2098      H2102   1.046       .  S
C2103      C2104   1.402   1_556  A
C2103      C2108   1.402       .  A
C2103      H2110   1.084       .  S
C2104      C2105   1.412       .  A
C2105      C2106   1.400       .  A
C2105      N2112   1.433       .  S
C2106      C2107   1.404   1_554  A
C2106      H2111   1.084       .  S
C2107      C2108   1.413       .  A
C2108      N2109   1.432       .  S
N2109      H2113   1.045       .  S
N2109      H2114   1.046       .  S
N2112      H2115   1.046       .  S
N2112      H2116   1.046       .  S
C2117      C2118   1.409       .  A
C2117      C2122   1.405   1_655  A
C2117      H2124   1.084       .  S
C2118      C2119   1.420   1_655  A
C2119      C2120   1.402       .  A
C2119      N2126   1.432       .  S
C2120      C2121   1.406       .  A
C2120      H2125   1.084       .  S
C2121      C2122   1.418       .  A
C2122      N2123   1.432   1_455  S
N2123      H2127   1.045       .  S
N2123      H2128   1.045   1_655  S
N2126      H2129   1.042       .  S
N2126      H2130   1.048       .  S
C2131      C2132   1.406       .  A
C2131      C2136   1.401       .  A
C2131      H2138   1.084       .  S
C2132      C2133   1.405       .  A
C2133      C2134   1.408       .  A
C2133      N2140   1.432       .  S
C2134      C2135   1.419       .  A
C2134      H2139   1.075       .  S
C2135      C2136   1.425       .  A
C2136      N2137   1.434       .  S
N2137      H2141   1.044       .  S
N2137      H2142   1.042       .  S
N2140      H2143   1.045       .  S
N2140      H2144   1.046       .  S
C2145      C2146   1.408       .  A
C2145      C2150   1.404       .  A
C2145      H2152   1.084       .  S
C2146      C2147   1.415       .  A
C2147      C2148   1.408       .  A
C2147      N2154   1.437       .  S
C2148      C2149   1.405       .  A
C2148      H2153   1.084       .  S
C2149      C2150   1.409       .  A
C2150      N2151   1.433       .  S
N2151      H2155   1.046       .  S
N2151      H2156   1.046       .  S
N2154      H2157   1.044       .  S
N2154      H2158   1.047       .  S
C2159      C2160   1.405       .  A
C2159      C2164   1.415       .  A
C2159      H2166   1.083       .  S
C2160      C2161   1.407       .  A
C2161      C2162   1.400       .  A
C2161      N2168   1.432       .  S
C2162      C2163   1.401       .  A
C2162      H2167   1.084       .  S
C2163      C2164   1.411       .  A
C2164      N2165   1.437       .  S
N2165      H2169   1.045       .  S
N2165      H2170   1.046       .  S
N2168      H2171   1.045       .  S
N2168      H2172   1.046       .  S
C2173      C2174   1.399       .  A
C2173      C2178   1.400       .  A
C2173      H2180   1.084       .  S
C2174      C2175   1.409       .  A
C2175      C2176   1.409       .  A
C2175      N2182   1.433       .  S
C2176      C2177   1.415       .  A
C2176      H2181   1.075       .  S
C2177      C2178   1.434       .  A
C2178      N2179   1.435       .  S
N2179      H2183   1.044       .  S
N2179      H2184   1.037       .  S
N2182      H2185   1.046       .  S
N2182      H2186   1.045       .  S
C2187      C2188   1.406       .  A
C2187      C2192   1.404       .  A
C2187      H2194   1.084       .  S
C2188      C2189   1.416       .  A
C2189      C2190   1.411       .  A
C2189      N2196   1.438       .  S
C2190      C2191   1.408       .  A
C2190      H2195   1.083       .  S
C2191      C2192   1.421       .  A
C2192      N2193   1.432       .  S
N2193      H2197   1.045       .  S
N2193      H2198   1.045       .  S
N2196      H2199   1.045       .  S
N2196      H2200   1.047       .  S
C2201      C2202   1.406       .  A
C2201      C2206   1.404       .  A
C2201      H2208   1.083       .  S
C2202      C2203   1.414       .  A
C2203      C2204   1.398       .  A
C2203      N2210   1.439       .  S
C2204      C2205   1.401       .  A
C2204      H2209   1.084       .  S
C2205      C2206   1.410       .  A
C2206      N2207   1.438       .  S
N2207      H2211   1.045       .  S
N2207      H2212   1.046       .  S
N2210      H2213   1.045       .  S
N2210      H2214   1.046       .  S
C2215      C2216   1.408       .  A
C2215      C2220   1.411       .  A
C2215      H2222   1.084       .  S
C2216      C2217   1.414       .  A
C2217      C2218   1.411       .  A
C2217      N2224   1.432       .  S
C2218      C2219   1.408       .  A
C2218      H2223   1.084       .  S
C2219      C2220   1.414       .  A
C2220      N2221   1.432       .  S
N2221      H2225   1.045       .  S
N2221      H2226   1.046       .  S
N2224      H2227   1.046       .  S
N2224      H2228   1.045       .  S
C2229      C2230   1.406       .  A
C2229      C2234   1.401       .  A
C2229      H2236   1.084       .  S
C2230      C2231   1.414       .  A
C2231      C2232   1.416       .  A
C2231      N2238   1.436       .  S
C2232      C2233   1.409       .  A
C2232      H2237   1.084       .  S
C2233      C2234   1.419       .  A
C2234      N2235   1.431       .  S
N2235      H2239   1.054       .  S
N2235      H2240   1.031       .  S
N2238      H2241   1.045       .  S
N2238      H2242   1.046       .  S
C2243      C2244   1.404       .  A
C2243      C2248   1.406       .  A
C2243      H2250   1.084       .  S
C2244      C2245   1.416       .  A
C2245      C2246   1.400       .  A
C2245      N2252   1.433       .  S
C2246      C2247   1.407       .  A
C2246      H2251   1.084       .  S
C2247      C2248   1.416       .  A
C2248      N2249   1.438       .  S
N2249      H2253   1.043       .  S
N2249      H2254   1.048       .  S
N2252      H2255   1.046       .  S
N2252      H2256   1.044       .  S
C2257      C2258   1.404       .  A
C2257      C2262   1.399       .  A
C2257      H2264   1.084       .  S
C2258      C2259   1.421       .  A
C2259      C2260   1.397       .  A
C2259      N2266   1.434       .  S
C2260      C2261   1.398       .  A
C2260      H2265   1.084       .  S
C2261      C2262   1.412       .  A
C2262      N2263   1.432       .  S
N2263      H2267   1.045       .  S
N2263      H2268   1.045       .  S
N2266      H2269   1.051       .  S
N2266      H2270   1.036       .  S
C2271      C2272   1.413       .  A
C2271      C2276   1.406       .  A
C2271      H2278   1.075       .  S
C2272      C2273   1.433       .  A
C2273      C2274   1.405       .  A
C2273      N2280   1.435       .  S
C2274      C2275   1.401       .  A
C2274      H2279   1.084       .  S
C2275      C2276   1.409       .  A
C2276      N2277   1.433       .  S
N2277      H2281   1.046       .  S
N2277      H2282   1.046       .  S
N2280      H2283   1.042       .  S
N2280      H2284   1.041       .  S
C2285      C2286   1.406   1_455  A
C2285      C2290   1.407   1_545  A
C2285      H2292   1.084       .  S
C2286      C2287   1.419   1_545  A
C2287      C2288   1.402   1_655  A
C2287      N2294   1.432       .  S
C2288      C2289   1.406       .  A
C2288      H2293   1.084       .  S
C2289      C2290   1.413       .  A
C2290      N2291   1.432   1_565  S
N2291      H2295   1.046       .  S
N2291      H2296   1.045       .  S
N2294      H2297   1.045       .  S
N2294      H2298   1.046       .  S
C2299      C2300   1.406       .  A
C2299      C2304   1.412       .  A
C2299      H2306   1.083       .  S
C2300      C2301   1.413   1_655  A
C2301      C2302   1.408       .  A
C2301      N2308   1.432       .  S
C2302      C2303   1.407       .  A
C2302      H2307   1.084       .  S
C2303      C2304   1.417   1_455  A
C2304      N2305   1.437       .  S
N2305      H2309   1.046       .  S
N2305      H2310   1.045       .  S
N2308      H2311   1.046       .  S
N2308      H2312   1.046       .  S
C2313      C2314   1.403       .  A
C2313      C2318   1.399       .  A
C2313      H2320   1.084       .  S
C2314      C2315   1.418       .  A
C2315      C2316   1.395       .  A
C2315      N2322   1.433       .  S
C2316      C2317   1.402       .  A
C2316      H2321   1.084       .  S
C2317      C2318   1.411       .  A
C2318      N2319   1.433       .  S
N2319      H2323   1.046       .  S
N2319      H2324   1.045       .  S
N2322      H2325   1.047       .  S
N2322      H2326   1.043       .  S
C2327      C2328   1.407       .  A
C2327      C2332   1.411       .  A
C2327      H2334   1.083       .  S
C2328      C2329   1.418       .  A
C2329      C2330   1.402       .  A
C2329      N2336   1.433       .  S
C2330      C2331   1.402       .  A
C2330      H2335   1.084       .  S
C2331      C2332   1.413       .  A
C2332      N2333   1.432       .  S
N2333      H2337   1.045       .  S
N2333      H2338   1.046       .  S
N2336      H2339   1.046       .  S
N2336      H2340   1.046       .  S
C2341      C2342   1.404       .  A
C2341      C2346   1.404       .  A
C2341      H2348   1.084       .  S
C2342      C2343   1.410       .  A
C2343      C2344   1.403       .  A
C2343      N2350   1.433       .  S
C2344      C2345   1.404       .  A
C2344      H2349   1.084       .  S
C2345      C2346   1.411       .  A
C2346      N2347   1.432       .  S
N2347      H2351   1.046       .  S
N2347      H2352   1.046   1_655  S
N2350      H2353   1.046       .  S
N2350      H2354   1.045       .  S
C2355      C2356   1.407       .  A
C2355      C2360   1.415       .  A
C2355      H2362   1.084       .  S
C2356      C2357   1.409       .  A
C2357      C2358   1.398       .  A
C2357      N2364   1.433       .  S
C2358      C2359   1.402       .  A
C2358      H2363   1.084       .  S
C2359      C2360   1.410       .  A
C2360      N2361   1.437       .  S
N2361      H2365   1.047       .  S
N2361      H2366   1.045       .  S
N2364      H2367   1.046       .  S
N2364      H2368   1.045       .  S
C2369      C2370   1.403       .  A
C2369      C2374   1.406       .  A
C2369      H2376   1.079       .  S
C2370      C2371   1.418       .  A
C2371      C2372   1.395       .  A
C2371      N2378   1.434       .  S
C2372      C2373   1.406       .  A
C2372      H2377   1.081       .  S
C2373      C2374   1.416       .  A
C2374      N2375   1.431       .  S
N2375      H2379   1.046       .  S
N2375      H2380   1.045       .  S
N2378      H2381   1.045       .  S
N2378      H2382   1.041       .  S
C2383      C2384   1.409       .  A
C2383      C2388   1.404       .  A
C2383      H2390   1.084       .  S
C2384      C2385   1.427       .  A
C2385      C2386   1.413       .  A
C2385      N2392   1.434       .  S
C2386      C2387   1.401       .  A
C2386      H2391   1.083       .  S
C2387      C2388   1.413       .  A
C2388      N2389   1.433       .  S
N2389      H2393   1.045       .  S
N2389      H2394   1.046       .  S
N2392      H2395   1.045       .  S
N2392      H2396   1.046       .  S
C2397      C2398   1.407       .  A
C2397      C2402   1.409       .  A
C2397      H2404   1.084       .  S
C2398      C2399   1.417       .  A
C2399      C2400   1.409   1_556  A
C2399      N2406   1.437   1_556  S
C2400      C2401   1.405       .  A
C2400      H2405   1.083       .  S
C2401      C2402   1.414   1_554  A
C2402      N2403   1.432       .  S
N2403      H2407   1.046       .  S
N2403      H2408   1.045       .  S
N2406      H2409   1.046       .  S
N2406      H2410   1.045       .  S
C2411      C2412   1.402   1_556  A
C2411      C2416   1.394       .  A
C2411      H2418   1.084       .  S
C2412      C2413   1.418       .  A
C2413      C2414   1.397       .  A
C2413      N2420   1.433       .  S
C2414      C2415   1.405   1_554  A
C2414      H2419   1.084       .  S
C2415      C2416   1.418       .  A
C2416      N2417   1.432       .  S
N2417      H2421   1.043       .  S
N2417      H2422   1.048       .  S
N2420      H2423   1.045       .  S
N2420      H2424   1.045       .  S
C2425      C2426   1.407       .  A
C2425      C2430   1.404       .  A
C2425      H2432   1.083       .  S
C2426      C2427   1.418       .  A
C2427      C2428   1.408       .  A
C2427      N2434   1.432       .  S
C2428      C2429   1.407       .  A
C2428      H2433   1.083       .  S
C2429      C2430   1.416       .  A
C2430      N2431   1.438       .  S
N2431      H2435   1.045       .  S
N2431      H2436   1.046       .  S
N2434      H2437   1.045       .  S
N2434      H2438   1.046       .  S
C2439      C2440   1.407       .  A
C2439      C2444   1.408   1_545  A
C2439      H2446   1.084       .  S
C2440      C2441   1.413       .  A
C2441      C2442   1.405       .  A
C2441      N2448   1.432       .  S
C2442      C2443   1.405   1_545  A
C2442      H2447   1.084       .  S
C2443      C2444   1.414       .  A
C2444      N2445   1.433       .  S
N2445      H2449   1.045       .  S
N2445      H2450   1.046       .  S
N2448      H2451   1.046       .  S
N2448      H2452   1.046       .  S
C2453      C2454   1.409       .  A
C2453      C2458   1.402       .  A
C2453      H2460   1.084       .  S
C2454      C2455   1.411       .  A
C2455      C2456   1.410       .  A
C2455      N2462   1.432       .  S
C2456      C2457   1.405       .  A
C2456      H2461   1.080       .  S
C2457      C2458   1.406       .  A
C2458      N2459   1.432       .  S
N2459      H2463   1.046       .  S
N2459      H2464   1.045       .  S
N2462      H2465   1.046       .  S
N2462      H2466   1.046       .  S
C2467      C2468   1.406       .  A
C2467      C2472   1.402       .  A
C2467      H2474   1.084       .  S
C2468      C2469   1.416       .  A
C2469      C2470   1.408       .  A
C2469      N2476   1.437       .  S
C2470      C2471   1.404       .  A
C2470      H2475   1.083       .  S
C2471      C2472   1.411       .  A
C2472      N2473   1.433       .  S
N2473      H2477   1.046       .  S
N2473      H2478   1.046       .  S
N2476      H2479   1.045       .  S
N2476      H2480   1.046       .  S
C2481      C2482   1.405       .  A
C2481      C2486   1.405       .  A
C2481      H2488   1.084       .  S
C2482      C2483   1.416   1_556  A
C2483      C2484   1.412       .  A
C2483      N2490   1.437       .  S
C2484      C2485   1.407       .  A
C2484      H2489   1.083       .  S
C2485      C2486   1.411   1_554  A
C2486      N2487   1.432       .  S
N2487      H2491   1.045       .  S
N2487      H2492   1.046       .  S
N2490      H2493   1.045       .  S
N2490      H2494   1.046       .  S
C2495      C2496   1.402       .  A
C2495      C2500   1.403       .  A
C2495      H2502   1.084       .  S
C2496      C2497   1.410       .  A
C2497      C2498   1.398       .  A
C2497      N2504   1.433       .  S
C2498      C2499   1.403       .  A
C2498      H2503   1.084       .  S
C2499      C2500   1.414       .  A
C2500      N2501   1.433       .  S
N2501      H2505   1.045       .  S
N2501      H2506   1.046       .  S
N2504      H2507   1.046       .  S
N2504      H2508   1.046       .  S
C2509      C2510   1.406       .  A
C2509      C2514   1.405       .  A
C2509      H2516   1.084       .  S
C2510      C2511   1.407       .  A
C2511      C2512   1.407       .  A
C2511      N2518   1.432       .  S
C2512      C2513   1.415       .  A
C2512      H2517   1.076       .  S
C2513      C2514   1.416       .  A
C2514      N2515   1.433       .  S
N2515      H2519   1.046       .  S
N2515      H2520   1.046       .  S
N2518      H2521   1.046       .  S
N2518      H2522   1.046       .  S
C2523      C2524   1.408       .  A
C2523      C2528   1.415       .  A
C2523      H2530   1.083       .  S
C2524      C2525   1.414       .  A
C2525      C2526   1.409   1_554  A
C2525      N2532   1.432   1_455  S
C2526      C2527   1.407       .  A
C2526      H2531   1.084       .  S
C2527      C2528   1.419   1_556  A
C2528      N2529   1.437       .  S
N2529      H2533   1.046       .  S
N2529      H2534   1.045       .  S
N2532      H2535   1.046   1_554  S
N2532      H2536   1.045   1_554  S
C2537      C2538   1.407   1_655  A
C2537      C2542   1.404   1_655  A
C2537      H2544   1.084       .  S
C2538      C2539   1.414       .  A
C2539      C2540   1.405       .  A
C2539      N2546   1.438       .  S
C2540      C2541   1.406       .  A
C2540      H2545   1.083       .  S
C2541      C2542   1.409       .  A
C2542      N2543   1.433   1_455  S
N2543      H2547   1.045       .  S
N2543      H2548   1.046       .  S
N2546      H2549   1.045       .  S
N2546      H2550   1.046       .  S
C2551      C2552   1.405       .  A
C2551      C2556   1.406       .  A
C2551      H2558   1.084       .  S
C2552      C2553   1.414       .  A
C2553      C2554   1.408       .  A
C2553      N2560   1.438       .  S
C2554      C2555   1.406       .  A
C2554      H2559   1.083       .  S
C2555      C2556   1.413       .  A
C2556      N2557   1.432       .  S
N2557      H2561   1.046       .  S
N2557      H2562   1.046       .  S
N2560      H2563   1.046       .  S
N2560      H2564   1.046       .  S
C2565      C2566   1.405       .  A
C2565      C2570   1.407       .  A
C2565      H2572   1.083       .  S
C2566      C2567   1.416       .  A
C2567      C2568   1.412       .  A
C2567      N2574   1.432       .  S
C2568      C2569   1.404       .  A
C2568      H2573   1.084       .  S
C2569      C2570   1.412       .  A
C2570      N2571   1.438       .  S
N2571      H2575   1.045       .  S
N2571      H2576   1.046       .  S
N2574      H2577   1.045       .  S
N2574      H2578   1.046       .  S
C2579      C2580   1.405       .  A
C2579      C2584   1.403       .  A
C2579      H2586   1.083       .  S
C2580      C2581   1.413       .  A
C2581      C2582   1.401       .  A
C2581      N2588   1.438       .  S
C2582      C2583   1.404       .  A
C2582      H2587   1.083       .  S
C2583      C2584   1.412       .  A
C2584      N2585   1.438       .  S
N2585      H2589   1.046       .  S
N2585      H2590   1.045       .  S
N2588      H2591   1.046       .  S
N2588      H2592   1.045       .  S
C2593      C2594   1.408       .  A
C2593      C2598   1.412       .  A
C2593      H2600   1.083       .  S
C2594      C2595   1.416       .  A
C2595      C2596   1.407       .  A
C2595      N2602   1.433       .  S
C2596      C2597   1.404       .  A
C2596      H2601   1.083       .  S
C2597      C2598   1.412       .  A
C2598      N2599   1.432       .  S
N2599      H2603   1.045       .  S
N2599      H2604   1.046       .  S
N2602      H2605   1.045       .  S
N2602      H2606   1.046       .  S
C2607      C2608   1.406       .  A
C2607      C2612   1.406       .  A
C2607      H2614   1.084       .  S
C2608      C2609   1.417       .  A
C2609      C2610   1.412       .  A
C2609      N2616   1.437       .  S
C2610      C2611   1.406       .  A
C2610      H2615   1.083       .  S
C2611      C2612   1.413       .  A
C2612      N2613   1.433       .  S
N2613      H2617   1.046       .  S
N2613      H2618   1.046       .  S
N2616      H2619   1.045       .  S
N2616      H2620   1.046       .  S
C2621      C2622   1.404       .  A
C2621      C2626   1.403       .  A
C2621      H2628   1.083       .  S
C2622      C2623   1.419       .  A
C2623      C2624   1.396       .  A
C2623      N2630   1.433       .  S
C2624      C2625   1.403       .  A
C2624      H2629   1.084       .  S
C2625      C2626   1.415       .  A
C2626      N2627   1.438       .  S
N2627      H2631   1.046       .  S
N2627      H2632   1.045       .  S
N2630      H2633   1.045       .  S
N2630      H2634   1.045       .  S
C2635      C2636   1.407       .  A
C2635      C2640   1.404       .  A
C2635      H2642   1.083       .  S
C2636      C2637   1.412       .  A
C2637      C2638   1.403       .  A
C2637      N2644   1.432       .  S
C2638      C2639   1.403       .  A
C2638      H2643   1.084       .  S
C2639      C2640   1.412       .  A
C2640      N2641   1.438       .  S
N2641      H2645   1.046       .  S
N2641      H2646   1.045       .  S
N2644      H2647   1.046       .  S
N2644      H2648   1.046       .  S
C2649      C2650   1.406       .  A
C2649      C2654   1.405       .  A
C2649      H2656   1.082       .  S
C2650      C2651   1.421       .  A
C2651      C2652   1.397       .  A
C2651      N2658   1.433       .  S
C2652      C2653   1.397       .  A
C2652      H2657   1.084       .  S
C2653      C2654   1.407       .  A
C2654      N2655   1.437       .  S
N2655      H2659   1.044       .  S
N2655      H2660   1.047       .  S
N2658      H2661   1.045       .  S
N2658      H2662   1.042       .  S
C2663      C2664   1.403       .  A
C2663      C2668   1.402       .  A
C2663      H2670   1.084       .  S
C2664      C2665   1.408       .  A
C2665      C2666   1.411       .  A
C2665      N2672   1.432       .  S
C2666      C2667   1.414       .  A
C2666      H2671   1.078       .  S
C2667      C2668   1.418       .  A
C2668      N2669   1.434       .  S
N2669      H2673   1.046       .  S
N2669      H2674   1.045       .  S
N2672      H2675   1.045       .  S
N2672      H2676   1.046       .  S
C2677      C2678   1.399       .  A
C2677      C2682   1.408       .  A
C2677      H2684   1.084       .  S
C2678      C2679   1.402       .  A
C2679      C2680   1.399       .  A
C2679      N2686   1.433       .  S
C2680      C2681   1.405       .  A
C2680      H2685   1.079       .  S
C2681      C2682   1.420       .  A
C2682      N2683   1.438       .  S
N2683      H2687   1.045       .  S
N2683      H2688   1.046       .  S
N2686      H2689   1.045       .  S
N2686      H2690   1.046       .  S
C2691      C2692   1.407       .  A
C2691      C2696   1.403       .  A
C2691      H2698   1.084       .  S
C2692      C2693   1.413       .  A
C2693      C2694   1.416       .  A
C2693      N2700   1.431       .  S
C2694      C2695   1.409       .  A
C2694      H2699   1.084       .  S
C2695      C2696   1.411       .  A
C2696      N2697   1.432       .  S
N2697      H2701   1.046       .  S
N2697      H2702   1.045       .  S
N2700      H2703   1.046       .  S
N2700      H2704   1.045       .  S
C2705      C2706   1.396       .  A
C2705      C2710   1.404       .  A
C2705      H2712   1.084       .  S
C2706      C2707   1.409       .  A
C2707      C2708   1.408       .  A
C2707      N2714   1.439       .  S
C2708      C2709   1.409       .  A
C2708      H2713   1.081       .  S
C2709      C2710   1.420       .  A
C2710      N2711   1.432       .  S
N2711      H2715   1.046       .  S
N2711      H2716   1.045       .  S
N2714      H2717   1.041       .  S
N2714      H2718   1.047       .  S
C2719      C2720   1.411       .  A
C2719      C2724   1.400       .  A
C2719      H2726   1.083       .  S
C2720      C2721   1.418       .  A
C2721      C2722   1.404       .  A
C2721      N2728   1.431       .  S
C2722      C2723   1.398       .  A
C2722      H2727   1.084       .  S
C2723      C2724   1.407       .  A
C2724      N2725   1.433       .  S
N2725      H2729   1.046       .  S
N2725      H2730   1.045       .  S
N2728      H2731   1.046       .  S
N2728      H2732   1.046       .  S
C2733      C2734   1.407       .  A
C2733      C2738   1.405       .  A
C2733      H2740   1.084       .  S
C2734      C2735   1.417       .  A
C2735      C2736   1.410       .  A
C2735      N2742   1.438       .  S
C2736      C2737   1.405       .  A
C2736      H2741   1.084       .  S
C2737      C2738   1.417       .  A
C2738      N2739   1.432   1_554  S
N2739      H2743   1.043       .  S
N2739      H2744   1.046       .  S
N2742      H2745   1.044       .  S
N2742      H2746   1.048       .  S
C2747      C2748   1.402       .  A
C2747      C2752   1.403       .  A
C2747      H2754   1.084       .  S
C2748      C2749   1.417       .  A
C2749      C2750   1.396       .  A
C2749      N2756   1.433       .  S
C2750      C2751   1.405       .  A
C2750      H2755   1.084       .  S
C2751      C2752   1.415       .  A
C2752      N2753   1.438       .  S
N2753      H2757   1.046       .  S
N2753      H2758   1.045       .  S
N2756      H2759   1.045       .  S
N2756      H2760   1.045       .  S
C2761      C2762   1.407       .  A
C2761      C2766   1.402       .  A
C2761      H2768   1.082       .  S
C2762      C2763   1.417       .  A
C2763      C2764   1.407       .  A
C2763      N2770   1.432       .  S
C2764      C2765   1.409       .  A
C2764      H2769   1.083       .  S
C2765      C2766   1.411       .  A
C2766      N2767   1.432       .  S
N2767      H2771   1.046       .  S
N2767      H2772   1.046       .  S
N2770      H2773   1.045       .  S
N2770      H2774   1.045       .  S
C2775      C2776   1.407   1_556  A
C2775      C2780   1.406       .  A
C2775      H2782   1.084   1_545  S
C2776      C2777   1.414       .  A
C2777      C2778   1.409       .  A
C2777      N2784   1.432       .  S
C2778      C2779   1.406   1_554  A
C2778      H2783   1.084       .  S
C2779      C2780   1.414       .  A
C2780      N2781   1.433       .  S
N2781      H2785   1.046       .  S
N2781      H2786   1.045       .  S
N2784      H2787   1.045       .  S
N2784      H2788   1.046       .  S
C2789      C2790   1.405   1_565  A
C2789      C2794   1.399   1_565  A
C2789      H2796   1.084       .  S
C2790      C2791   1.410       .  A
C2791      C2792   1.400       .  A
C2791      N2798   1.438       .  S
C2792      C2793   1.403       .  A
C2792      H2797   1.084       .  S
C2793      C2794   1.412       .  A
C2794      N2795   1.433   1_545  S
N2795      H2799   1.045   1_565  S
N2795      H2800   1.044       .  S
N2798      H2801   1.045       .  S
N2798      H2802   1.046       .  S
C2803      C2804   1.402       .  A
C2803      C2808   1.406       .  A
C2803      H2810   1.084       .  S
C2804      C2805   1.416       .  A
C2805      C2806   1.404       .  A
C2805      N2812   1.433       .  S
C2806      C2807   1.413       .  A
C2806      H2811   1.076       .  S
C2807      C2808   1.419       .  A
C2808      N2809   1.433       .  S
N2809      H2813   1.046       .  S
N2809      H2814   1.046       .  S
N2812      H2815   1.042       .  S
N2812      H2816   1.048       .  S
C2817      C2818   1.403       .  A
C2817      C2822   1.395       .  A
C2817      H2824   1.084       .  S
C2818      C2819   1.412       .  A
C2819      C2820   1.409       .  A
C2819      N2826   1.433       .  S
C2820      C2821   1.408       .  A
C2820      H2825   1.084       .  S
C2821      C2822   1.417       .  A
C2822      N2823   1.433       .  S
N2823      H2827   1.044       .  S
N2823      H2828   1.045       .  S
N2826      H2829   1.046       .  S
N2826      H2830   1.045       .  S
C2831      C2832   1.407   1_565  A
C2831      C2836   1.406   1_565  A
C2831      H2838   1.084       .  S
C2832      C2833   1.420       .  A
C2833      C2834   1.404       .  A
C2833      N2840   1.432       .  S
C2834      C2835   1.406       .  A
C2834      H2839   1.084       .  S
C2835      C2836   1.411       .  A
C2836      N2837   1.432       .  S
N2837      H2841   1.046   1_545  S
N2837      H2842   1.046   1_545  S
N2840      H2843   1.045       .  S
N2840      H2844   1.046       .  S
C2845      C2846   1.405       .  A
C2845      C2850   1.404       .  A
C2845      H2852   1.084       .  S
C2846      C2847   1.407   1_565  A
C2847      C2848   1.399       .  A
C2847      N2854   1.433       .  S
C2848      C2849   1.405       .  A
C2848      H2853   1.084       .  S
C2849      C2850   1.412   1_545  A
C2850      N2851   1.438       .  S
N2851      H2855   1.045       .  S
N2851      H2856   1.046       .  S
N2854      H2857   1.046       .  S
N2854      H2858   1.046       .  S
C2859      C2860   1.408       .  A
C2859      C2864   1.400       .  A
C2859      H2866   1.084       .  S
C2860      C2861   1.412       .  A
C2861      C2862   1.411       .  A
C2861      N2868   1.431       .  S
C2862      C2863   1.406       .  A
C2862      H2867   1.084       .  S
C2863      C2864   1.415       .  A
C2864      N2865   1.433       .  S
N2865      H2869   1.042       .  S
N2865      H2870   1.046       .  S
N2868      H2871   1.045       .  S
N2868      H2872   1.046       .  S
C2873      C2874   1.405   1_655  A
C2873      C2878   1.400   1_655  A
C2873      H2880   1.084       .  S
C2874      C2875   1.414       .  A
C2875      C2876   1.409       .  A
C2875      N2882   1.437       .  S
C2876      C2877   1.408       .  A
C2876      H2881   1.083       .  S
C2877      C2878   1.419       .  A
C2878      N2879   1.432       .  S
N2879      H2883   1.045       .  S
N2879      H2884   1.045       .  S
N2882      H2885   1.046       .  S
N2882      H2886   1.046       .  S
C2887      C2888   1.402       .  A
C2887      C2892   1.395       .  A
C2887      H2894   1.084       .  S
C2888      C2889   1.411       .  A
C2889      C2890   1.404       .  A
C2889      N2896   1.432   1_455  S
C2890      C2891   1.405       .  A
C2890      H2895   1.084       .  S
C2891      C2892   1.419       .  A
C2892      N2893   1.433       .  S
N2893      H2897   1.046       .  S
N2893      H2898   1.044       .  S
N2896      H2899   1.046       .  S
N2896      H2900   1.046       .  S
C2901      C2902   1.404       .  A
C2901      C2906   1.397       .  A
C2901      H2908   1.084       .  S
C2902      C2903   1.411       .  A
C2903      C2904   1.413       .  A
C2903      N2910   1.438       .  S
C2904      C2905   1.418       .  A
C2904      H2909   1.075       .  S
C2905      C2906   1.413       .  A
C2906      N2907   1.433       .  S
N2907      H2911   1.046       .  S
N2907      H2912   1.046       .  S
N2910      H2913   1.044       .  S
N2910      H2914   1.047       .  S
C2915      C2916   1.405       .  A
C2915      C2920   1.404       .  A
C2915      H2922   1.084       .  S
C2916      C2917   1.412       .  A
C2917      C2918   1.406       .  A
C2917      N2924   1.438       .  S
C2918      C2919   1.406       .  A
C2918      H2923   1.084       .  S
C2919      C2920   1.411       .  A
C2920      N2921   1.432       .  S
N2921      H2925   1.045       .  S
N2921      H2926   1.046       .  S
N2924      H2927   1.047       .  S
N2924      H2928   1.045       .  S
