geometry optimzed in LAMMPS
_audit_creation_date              2020-11-30 
_audit_creation_method            'lammps2cif' 
_symmetry_space_group_name_H-M    'P1' 
_symmetry_Int_Tables_number       1 
_symmetry_cell_setting            triclinic 
loop_ 
_symmetry_equiv_pos_as_xyz 
  x,y,z 
_cell_length_a                    58.38034832 
_cell_length_b                    58.34122793385886 
_cell_length_c                    58.3395458905572 
_cell_angle_alpha                 90.05797958513924 
_cell_angle_beta                  90.0394950554441 
_cell_angle_gamma                 90.04226599667216 
loop_ 
_atom_site_label 
_atom_site_type_symbol 
_atom_site_fract_x 
_atom_site_fract_y 
_atom_site_fract_z 
_atom_site_charge 
O1          O  0.83760777  0.89975152  0.64197493    -0.83900
O2          O  0.84607833  0.87298734  0.60393181    -0.80900
C3          C  0.85420999  0.85687440  0.59209485     0.99600
O4          O  0.85907406  0.83776996  0.60109826    -0.80900
O5          O  0.89686637  0.84581975  0.62831996    -0.83600
C6          C  0.90860852  0.85402408  0.64449593     1.04100
O7          O  0.89946437  0.85894365  0.66352222    -0.76400
O8          O  0.87271047  0.89681182  0.65519196    -0.76500
C9          C  0.85664745  0.90872970  0.64717458     1.04100
O10         O  0.81179489  0.86241742  0.66135668    -0.83900
O11         O  0.81662568  0.83755634  0.62173857    -0.80900
C12         C  0.82008553  0.81734905  0.62876688     0.99600
O13         O  0.83881937  0.81195182  0.63800684    -0.81000
O14         O  0.87819642  0.81659372  0.66347121    -0.83600
C15         C  0.87105628  0.82033175  0.68358637     1.04100
O16         O  0.86202074  0.83916562  0.68885247    -0.76400
O17         O  0.83709815  0.87858053  0.68405954    -0.76500
C18         C  0.81701480  0.87138770  0.68026955     1.04000
Cr19       Cr  0.83000916  0.86724665  0.63323755     1.93700
Cr20       Cr  0.86726497  0.83001475  0.63366087     1.93200
Cr21       Cr  0.86689613  0.86739069  0.67089533     1.39100
O22         O  0.85477771  0.85492511  0.64588180    -1.21600
O23         O  0.63149860  0.84521057  0.89208875    -0.83900
O24         O  0.60497618  0.83663014  0.85387380    -0.80900
C25         C  0.59595005  0.85571685  0.84898500     0.99600
O26         O  0.60780075  0.87191939  0.84112175    -0.80900
O27         O  0.64560769  0.89888315  0.83297486    -0.83600
C28         C  0.65057626  0.90790321  0.85206613     1.04100
O29         O  0.65859429  0.89607001  0.86821023    -0.76400
O30         O  0.66671490  0.85820296  0.89506265    -0.76500
C31         C  0.64757055  0.85335634  0.90399592     1.04100
O32         O  0.66713074  0.81613586  0.87426597    -0.83900
O33         O  0.64270451  0.81131042  0.83451378    -0.80900
C34         C  0.63394415  0.81661502  0.81555152     0.99600
O35         O  0.62622325  0.83653499  0.81202475    -0.81000
O36         O  0.66545209  0.86164524  0.80736975    -0.83600
C37         C  0.68424435  0.87071827  0.81273744     1.04100
O38         O  0.68784310  0.87792103  0.83286710    -0.76400
O39         O  0.69253085  0.83842344  0.85782121    -0.76500
C40         C  0.68720575  0.81964430  0.86695938     1.04000
Cr41       Cr  0.63745840  0.82927110  0.86272586     1.93700
Cr42       Cr  0.63721203  0.86634346  0.82534562     1.93200
Cr43       Cr  0.67447790  0.86668791  0.86257562     1.39100
O44         O  0.64965205  0.85418086  0.85028034    -1.21600
O45         O  0.89716696  0.63287914  0.84148092    -0.83900
O46         O  0.85950972  0.60607874  0.83169947    -0.80900
C47         C  0.85434573  0.59637407  0.85037189     0.99600
O48         O  0.84602037  0.60761959  0.86681406    -0.80900
O49         O  0.83679864  0.64471122  0.89476268    -0.83600
C50         C  0.85554480  0.64975167  0.90441145     1.04100
O51         O  0.87194238  0.65805981  0.89313948    -0.76400
O52         O  0.89955329  0.66755429  0.85601895    -0.76500
C53         C  0.90879041  0.64875763  0.85038773     1.04100
O54         O  0.87914939  0.66910386  0.81329259    -0.83900
O55         O  0.83985406  0.64405905  0.80704856    -0.80900
C56         C  0.82107656  0.63455149  0.81172042     0.99600
O57         O  0.81728169  0.62661849  0.83151490    -0.81000
O58         O  0.81180045  0.66533332  0.85760641    -0.83600
C59         C  0.81683499  0.68396465  0.86725630     1.04100
O60         O  0.83675238  0.68749834  0.87503217    -0.76400
O61         O  0.86247075  0.69366729  0.83636155    -0.76500
C62         C  0.87172273  0.68901266  0.81746987     1.04000
Cr63       Cr  0.86791096  0.63888527  0.82538516     1.93700
Cr64       Cr  0.82997523  0.63707895  0.86183696     1.93200
Cr65       Cr  0.86680807  0.67472624  0.86407533     1.39100
O66         O  0.85497375  0.65016856  0.85050386    -1.21600
O67         O  0.60523779  0.64516740  0.66294931    -0.83900
O68         O  0.63184068  0.60730628  0.65374210    -0.80900
C69         C  0.64783815  0.59549327  0.64541248     0.99600
O70         O  0.66691172  0.60454691  0.64047478    -0.80900
O71         O  0.65801449  0.63167824  0.60294860    -0.83600
C72         C  0.64965353  0.64785112  0.59139476     1.04100
O73         O  0.64498310  0.66692782  0.60056600    -0.76400
O74         O  0.60758211  0.65873037  0.62793133    -0.76500
C75         C  0.59596102  0.65038774  0.64406092     1.04100
O76         O  0.64306189  0.66451718  0.68821366    -0.83900
O77         O  0.66782946  0.62517142  0.68268903    -0.80900
C78         C  0.68780652  0.63272198  0.67900429     0.99600
O79         O  0.69285693  0.64186197  0.66014582    -0.81000
O80         O  0.68765810  0.66698289  0.62073992    -0.83600
C81         C  0.68425083  0.68713271  0.62799247     1.04100
O82         O  0.66565069  0.69240907  0.63752411    -0.76400
O83         O  0.62669937  0.68745387  0.66329324    -0.76500
C84         C  0.63431932  0.68354709  0.68318799     1.04000
Cr85       Cr  0.63787118  0.63652867  0.66992076     1.93700
Cr86       Cr  0.67442211  0.63717595  0.63208614     1.93200
Cr87       Cr  0.63719844  0.67439314  0.63323622     1.39100
O88         O  0.64976616  0.64933356  0.64502671    -1.21600
O89         O  0.89693028  0.15927733  0.62743162    -0.83900
O90         O  0.85888770  0.16702674  0.60059778    -0.80900
C91         C  0.85375818  0.14796590  0.59156230     0.99600
O92         O  0.84590278  0.13177259  0.60345429    -0.80900
O93         O  0.83846667  0.10479746  0.64144091    -0.83600
C94         C  0.85775143  0.09605185  0.64606946     1.04100
O95         O  0.87383566  0.10811977  0.65389086    -0.76400
O96         O  0.90003832  0.14638977  0.66263533    -0.76500
C97         C  0.90892833  0.15146366  0.64355367     1.04100
O98         O  0.87831251  0.18809950  0.66302593    -0.83900
O99         O  0.83892814  0.19255054  0.63792862    -0.80900
C100        C  0.82009496  0.18698158  0.62903188     0.99600
O101        O  0.81662637  0.16679418  0.62195327    -0.81000
O102        O  0.81261120  0.14188645  0.66155549    -0.83600
C103        C  0.81819436  0.13274966  0.68026083     1.04100
O104        O  0.83828512  0.12534831  0.68342911    -0.76400
O105        O  0.86245785  0.16519559  0.68831912    -0.76500
C106        C  0.87107477  0.18423439  0.68308653     1.04000
Cr107      Cr  0.86734919  0.17476325  0.63315244     1.93700
Cr108      Cr  0.83035130  0.13723407  0.63305985     1.93200
Cr109      Cr  0.86772688  0.13722305  0.67009703     1.39100
O110        O  0.85520780  0.14970300  0.64534624    -1.21600
O111        O  0.85967700  0.39936273  0.83184505    -0.83900
O112        O  0.89724036  0.37248516  0.84137322    -0.80900
C113        C  0.90887626  0.35635022  0.84969135     0.99600
O114        O  0.89963222  0.33738399  0.85474863    -0.80900
O115        O  0.87196387  0.34603292  0.89200089    -0.83600
C116        C  0.85566296  0.35432754  0.90341219     1.04100
O117        O  0.83685205  0.35942869  0.89392023    -0.76400
O118        O  0.84592356  0.39707754  0.86680273    -0.76500
C119        C  0.85436026  0.40867592  0.85067890     1.04100
O120        O  0.84035958  0.36184703  0.80621491    -0.83900
O121        O  0.87957187  0.33683836  0.81217724    -0.80900
C122        C  0.87187856  0.31690908  0.81571918     0.99600
O123        O  0.86246775  0.31181832  0.83440001    -0.81000
O124        O  0.83674904  0.31688461  0.87317017    -0.83600
C125        C  0.81687138  0.32046783  0.86532162     1.04100
O126        O  0.81184956  0.33934839  0.85620411    -0.76400
O127        O  0.81744669  0.37852267  0.83093450    -0.76500
C128        C  0.82146598  0.37102097  0.81099690     1.04000
Cr129      Cr  0.86819344  0.36674267  0.82488198     1.93700
Cr130      Cr  0.86683906  0.33000539  0.86258490     1.93200
Cr131      Cr  0.83000222  0.36761007  0.86112634     1.39100
O132        O  0.85507465  0.35486100  0.84961358    -1.21600
O133        O  0.60771835  0.15793115  0.86705751    -0.83900
O134        O  0.64514361  0.16584979  0.89464725    -0.80900
C135        C  0.64993431  0.14663949  0.90349399     0.99600
O136        O  0.65847644  0.13077549  0.89162347    -0.80900
O137        O  0.66758161  0.10437021  0.85361488    -0.83600
C138        C  0.64862369  0.09520113  0.84849470     1.04100
O139        O  0.63246907  0.10694355  0.84034545    -0.76400
O140        O  0.60541887  0.14478054  0.83183788    -0.76500
C141        C  0.59609410  0.14993484  0.85072002     1.04100
O142        O  0.62651642  0.18730900  0.83217078    -0.83900
O143        O  0.66553825  0.19198391  0.85783171    -0.80900
C144        C  0.68431680  0.18670018  0.86698220     0.99600
O145        O  0.68781178  0.16660295  0.87427526    -0.81000
O146        O  0.69313036  0.14201132  0.83455473    -0.83600
C147        C  0.68811083  0.13300279  0.81560136     1.04100
O148        O  0.66811427  0.12559891  0.81170429    -0.76400
O149        O  0.64286819  0.16486257  0.80677903    -0.76500
C150        C  0.63383121  0.18370157  0.81209233     1.04000
Cr151      Cr  0.63723962  0.17379649  0.86201470     1.93700
Cr152      Cr  0.67476926  0.13687115  0.86253299     1.93200
Cr153      Cr  0.63810453  0.13650788  0.82467558     1.39100
O154        O  0.64996272  0.14901108  0.84978708    -1.21600
O155        O  0.65864165  0.37229914  0.60260522    -0.83900
O156        O  0.66732512  0.39889158  0.64055475    -0.80900
C157        C  0.64831795  0.40787884  0.64584739     0.99600
O158        O  0.63236974  0.39598412  0.65419510    -0.80900
O159        O  0.60560034  0.35797706  0.66251767    -0.83600
C160        C  0.59627395  0.35335982  0.64348336     1.04100
O161        O  0.60785460  0.34556199  0.62704277    -0.76400
O162        O  0.64532415  0.33721787  0.59959669    -0.76500
C163        C  0.65034741  0.35632919  0.59069960     1.04100
O164        O  0.68787262  0.33654734  0.62027437    -0.83900
O165        O  0.69323330  0.36140497  0.65974104    -0.80900
C166        C  0.68824641  0.37041646  0.67867301     0.99600
O167        O  0.66819485  0.37754279  0.68265943    -0.81000
O168        O  0.64327828  0.33790135  0.68733996    -0.83600
C169        C  0.63399961  0.31917917  0.68194684     1.04100
O170        O  0.62631427  0.31590228  0.66193852    -0.76400
O171        O  0.66532338  0.31112823  0.63640791    -0.76500
C172        C  0.68414732  0.31639622  0.62736137     1.04000
Cr173      Cr  0.67480466  0.36635771  0.63177882     1.93700
Cr174      Cr  0.63825155  0.36639676  0.66969158     1.93200
Cr175      Cr  0.63719642  0.32942243  0.63216169     1.39100
O176        O  0.65004404  0.35411761  0.64448584    -1.21600
O177        O  0.14565717  0.89945856  0.66294801    -0.83900
O178        O  0.10800286  0.87235156  0.65446232    -0.80900
C179        C  0.09627351  0.85655158  0.64557473     0.99600
O180        O  0.10549428  0.83793237  0.63936716    -0.80900
O181        O  0.13257127  0.84787539  0.60186088    -0.83600
C182        C  0.14883674  0.85612380  0.59033884     1.04100
O183        O  0.16783563  0.86073536  0.59970576    -0.76400
O184        O  0.15885655  0.89784796  0.62767611    -0.76500
C185        C  0.15048946  0.90907799  0.64411564     1.04100
O186        O  0.16622868  0.86167515  0.68745012    -0.83900
O187        O  0.12718068  0.83620321  0.68211513    -0.80900
C188        C  0.13437616  0.81628628  0.67751172     0.99600
O189        O  0.14288846  0.81172662  0.65824550    -0.81000
O190        O  0.16808816  0.81821073  0.61939305    -0.83600
C191        C  0.18794240  0.82147987  0.62745860     1.04100
O192        O  0.19316728  0.84019786  0.63684262    -0.76400
O193        O  0.18816391  0.87923328  0.66255140    -0.76500
C194        C  0.18482500  0.87131515  0.68241406     1.04000
Cr195      Cr  0.13774588  0.86657571  0.66971363     1.93700
Cr196      Cr  0.13813809  0.83091949  0.63075258     1.93200
Cr197      Cr  0.17502866  0.86847473  0.63255538     1.39100
O198        O  0.15018597  0.85539954  0.64428998    -1.21600
O199        O  0.33817141  0.85981527  0.89482193    -0.83900
O200        O  0.34647994  0.89775460  0.86787754    -0.80900
C201        C  0.35419254  0.90956985  0.85156694     0.99600
O202        O  0.35879340  0.90051872  0.83241866    -0.80900
O203        O  0.39685307  0.87398125  0.84039836    -0.83600
C204        C  0.40881972  0.85799041  0.84850253     1.04100
O205        O  0.39995292  0.83887429  0.85365508    -0.76400
O206        O  0.37329836  0.84675517  0.89176774    -0.76500
C207        C  0.35723573  0.85468458  0.90376332     1.04100
O208        O  0.31227670  0.84020379  0.85762731    -0.83900
O209        O  0.31692690  0.87967770  0.83265076    -0.80900
C210        C  0.32027158  0.87233922  0.81252512     0.99600
O211        O  0.33895939  0.86311018  0.80707549    -0.81000
O212        O  0.37865204  0.83837571  0.81144003    -0.83600
C213        C  0.37151657  0.81825759  0.81513262     1.04100
O214        O  0.36265563  0.81295888  0.83403203    -0.76400
O215        O  0.33779441  0.81758140  0.87349724    -0.76500
C216        C  0.31761684  0.82131539  0.86651994     1.04000
Cr217      Cr  0.33043406  0.86839955  0.86231723     1.93700
Cr218      Cr  0.36736853  0.86806460  0.82482185     1.93200
Cr219      Cr  0.36751060  0.83101176  0.86227363     1.39100
O220        O  0.35516847  0.85586640  0.84987143    -1.21600
O221        O  0.10803545  0.65909295  0.86681007    -0.83900
O222        O  0.14558866  0.66859544  0.89370695    -0.80900
C223        C  0.15105145  0.64980469  0.90304354     0.99600
O224        O  0.15973391  0.63373945  0.89155507    -0.80900
O225        O  0.16926043  0.60660269  0.85412378    -0.83600
C226        C  0.15047796  0.59682678  0.84951603     1.04100
O227        O  0.13385071  0.60796993  0.84150314    -0.76400
O228        O  0.10574958  0.64477257  0.83206102    -0.76500
C229        C  0.09645858  0.65028110  0.85086228     1.04100
O230        O  0.12595081  0.68785661  0.83083317    -0.83900
O231        O  0.16501484  0.69416895  0.85610826    -0.80900
C232        C  0.18382363  0.68959611  0.86557304     0.99600
O233        O  0.18784488  0.66975453  0.87323025    -0.81000
O234        O  0.19344429  0.64455176  0.83397519    -0.83600
C235        C  0.18845397  0.63493141  0.81532743     1.04100
O236        O  0.16873440  0.62659900  0.81196063    -0.76400
O237        O  0.14255713  0.66494107  0.80604149    -0.76500
C238        C  0.13334892  0.68381664  0.81086265     1.04000
Cr239      Cr  0.13716637  0.67546518  0.86099803     1.93700
Cr240      Cr  0.17557947  0.63949002  0.86222618     1.93200
Cr241      Cr  0.13857460  0.63709850  0.82484602     1.39100
O242        O  0.15035093  0.65063789  0.84942113    -1.21600
O243        O  0.35886717  0.60582122  0.66231581    -0.83900
O244        O  0.39694615  0.63229411  0.65331837    -0.80900
C245        C  0.40877811  0.64839858  0.64517577     0.99600
O246        O  0.39988162  0.66766879  0.64071031    -0.80900
O247        O  0.37267492  0.66011734  0.60298333    -0.83600
C248        C  0.35655677  0.65191096  0.59120900     1.16900
O249        O  0.33760126  0.64667940  0.60031891    -0.76400
O250        O  0.34602143  0.60867328  0.62706471    -0.76500
C251        C  0.35384937  0.59677597  0.64326192     1.04100
O252        O  0.33993380  0.64349271  0.68791324    -0.83900
O253        O  0.37970779  0.66778036  0.68293574    -0.80900
C254        C  0.37204683  0.68778866  0.67987411     0.99600
O255        O  0.36276998  0.69329574  0.66121992    -0.81000
O256        O  0.33748269  0.68908859  0.62194051    -0.83600
C257        C  0.31747445  0.68533870  0.62933120     1.04100
O258        O  0.31221675  0.66630509  0.63793501    -0.76400
O259        O  0.31724548  0.62703432  0.66276906    -0.76500
C260        C  0.32094898  0.63471530  0.68270399     1.04000
Cr261      Cr  0.36790011  0.63824558  0.66967557     1.93700
Cr262      Cr  0.36731594  0.67559847  0.63265981     1.93200
Cr263      Cr  0.33024527  0.63812060  0.63288409     1.39100
O264        O  0.35521958  0.65058465  0.64495750    -1.21600
O265        O  0.14581170  0.16802624  0.60008633    -0.83900
O266        O  0.10800098  0.15947311  0.62689621    -0.80900
C267        C  0.09615617  0.15145513  0.64302103     0.99600
O268        O  0.10517151  0.14629354  0.66205086    -0.80900
O269        O  0.13185488  0.10832556  0.65358910    -0.83600
C270        C  0.14790236  0.09648320  0.64539746     1.04100
O271        O  0.16692765  0.10552117  0.64027588    -0.76400
O272        O  0.15851837  0.13270932  0.60259425    -0.76500
C273        C  0.15050994  0.14895814  0.59088919     1.04100
O274        O  0.16558515  0.19330050  0.63770408    -0.83900
O275        O  0.12609844  0.18835700  0.66255402    -0.80900
C276        C  0.13337517  0.18466418  0.68262057     0.99600
O277        O  0.14250550  0.16584430  0.68779507    -0.81000
O278        O  0.16741548  0.12634766  0.68274947    -0.83600
C279        C  0.18753470  0.13347710  0.67904497     1.04100
O280        O  0.19276926  0.14260521  0.66023728    -0.76400
O281        O  0.18788207  0.16800611  0.62105631    -0.76500
C282        C  0.18434807  0.18805939  0.62852140     1.04000
Cr283      Cr  0.13735010  0.17530265  0.63271535     1.93700
Cr284      Cr  0.13765099  0.13767770  0.66957691     1.93200
Cr285      Cr  0.17456771  0.13812100  0.63201321     1.39100
O286        O  0.14980714  0.15030213  0.64472677    -1.21600
O287        O  0.39936531  0.36039552  0.66236881    -0.83900
O288        O  0.37230106  0.39782345  0.65254989    -0.80900
C289        C  0.35608097  0.40930445  0.64418269     0.99600
O290        O  0.33720229  0.39991149  0.63915296    -0.80900
O291        O  0.34645866  0.37235424  0.60193887    -0.83600
C292        C  0.35484381  0.35604795  0.59056845     1.04100
O293        O  0.35992539  0.33723031  0.60006907    -0.76400
O294        O  0.39729303  0.34630414  0.62749983    -0.76500
C295        C  0.40878515  0.35489365  0.64363724     1.04100
O296        O  0.36173951  0.34102100  0.68777836    -0.83900
O297        O  0.33656575  0.38001384  0.68154717    -0.80900
C298        C  0.31670273  0.37217074  0.67789109     0.99600
O299        O  0.31179409  0.36262737  0.65918572    -0.81000
O300        O  0.31736615  0.33706566  0.62024258    -0.83600
C301        C  0.32085068  0.31722981  0.62817467     1.04100
O302        O  0.33958161  0.31223427  0.63759575    -0.76400
O303        O  0.37848126  0.31792283  0.66325458    -0.76500
C304        C  0.37078227  0.32203449  0.68309056     1.04000
Cr305      Cr  0.36664362  0.36878943  0.66908876     1.93700
Cr306      Cr  0.33017416  0.36713109  0.63114634     1.93200
Cr307      Cr  0.36783660  0.33039968  0.63294016     1.39100
O308        O  0.35497489  0.35549780  0.64431465    -1.21600
O309        O  0.34623332  0.10829843  0.86639793    -0.83900
O310        O  0.33677473  0.14562292  0.89373857    -0.80900
C311        C  0.35562029  0.15065363  0.90320765     0.99600
O312        O  0.37187370  0.15904631  0.89178985    -0.80900
O313        O  0.39921575  0.16862975  0.85454977    -0.83600
C314        C  0.40863407  0.14979852  0.84941274     1.04100
O315        O  0.39721736  0.13365609  0.84075381    -0.76400
O316        O  0.35997245  0.10628708  0.83139093    -0.76500
C317        C  0.35473757  0.09687377  0.85019035     1.04100
O318        O  0.31741824  0.12639969  0.83076482    -0.83900
O319        O  0.31157866  0.16552501  0.85620865    -0.80900
C320        C  0.31646073  0.18427583  0.86570106     0.99600
O321        O  0.33630093  0.18795795  0.87358271    -0.81000
O322        O  0.36173757  0.19392826  0.83469155    -0.83600
C323        C  0.37092772  0.18912173  0.81580237     1.04100
O324        O  0.37872911  0.16928294  0.81191063    -0.76400
O325        O  0.33993386  0.14349273  0.80598865    -0.76500
C326        C  0.32125167  0.13388902  0.81080654     1.04000
Cr327      Cr  0.32996408  0.13748182  0.86091916     1.93700
Cr328      Cr  0.36643377  0.17542372  0.86262667     1.93200
Cr329      Cr  0.36796615  0.13905494  0.82448674     1.39100
O330        O  0.35484651  0.15059136  0.84938682    -1.21600
O331        O  0.13345015  0.34722995  0.89119719    -0.83900
O332        O  0.10553988  0.33853635  0.85402589    -0.80900
C333        C  0.09638178  0.35752421  0.84897158     0.99600
O334        O  0.10807876  0.37361508  0.84063857    -0.80900
O335        O  0.14583355  0.40031927  0.83128216    -0.83600
C336        C  0.15136176  0.40944839  0.85016634     1.04100
O337        O  0.15976937  0.39771054  0.86617707    -0.76400
O338        O  0.16880579  0.36001311  0.89299849    -0.76500
C339        C  0.14995096  0.35527325  0.90255625     1.04100
O340        O  0.16831421  0.31784241  0.87235941    -0.83900
O341        O  0.14235548  0.31273519  0.83358040    -0.80900
C342        C  0.13296447  0.31791229  0.81488050     0.99600
O343        O  0.12551203  0.33793305  0.81133262    -0.81000
O344        O  0.16480680  0.36282455  0.80538033    -0.83600
C345        C  0.18373672  0.37196539  0.81013695     1.04100
O346        O  0.18786862  0.37937589  0.83008065    -0.76400
O347        O  0.19329044  0.34000420  0.85507717    -0.76500
C348        C  0.18818744  0.32129186  0.86447197     1.04000
Cr349      Cr  0.13828721  0.33103259  0.86179762     1.93700
Cr350      Cr  0.13707088  0.36777988  0.82411645     1.93200
Cr351      Cr  0.17544190  0.36830474  0.86022631     1.39100
O352        O  0.15020153  0.35576850  0.84877155    -1.21600
O353        O  0.83848979  0.85978653  0.39561299    -0.83900
O354        O  0.84770218  0.89763458  0.36875238    -0.80900
C355        C  0.85557787  0.90932071  0.35241043     0.99600
O356        O  0.85980915  0.90016995  0.33320732    -0.80900
O357        O  0.89747854  0.87278693  0.34074814    -0.83600
C358        C  0.90915627  0.85651886  0.34875762     1.04100
O359        O  0.89988526  0.83773238  0.35437297    -0.76400
O360        O  0.87330989  0.84595604  0.39258621    -0.76500
C361        C  0.85740910  0.85425572  0.40456852     1.04100
O362        O  0.81222802  0.84079877  0.35845651    -0.83900
O363        O  0.81765198  0.88022093  0.33366907    -0.80900
C364        C  0.82057339  0.87246401  0.31365861     0.99600
O365        O  0.83906329  0.86295251  0.30806164    -0.81000
O366        O  0.87846634  0.83771276  0.31195188    -0.83600
C367        C  0.87146532  0.81757415  0.31572773     1.04100
O368        O  0.86240549  0.81238392  0.33458755    -0.76400
O369        O  0.83735428  0.81748808  0.37398819    -0.76500
C370        C  0.81726385  0.82166973  0.36701679     1.04000
Cr371      Cr  0.83099761  0.86859726  0.36318750     1.93700
Cr372      Cr  0.86771065  0.86751056  0.32549865     1.93200
Cr373      Cr  0.86733691  0.83040854  0.36294558     1.39100
O374        O  0.85544845  0.85553759  0.35063053    -1.21600
O375        O  0.84519996  0.63218113  0.10391804    -0.83900
O376        O  0.83689080  0.60551154  0.14200587    -0.80900
C377        C  0.85589474  0.59619531  0.14657709     0.99600
O378        O  0.87241157  0.60781926  0.15416802    -0.80900
O379        O  0.90009701  0.64524324  0.16247192    -0.83600
C380        C  0.90908638  0.65058769  0.14347835     1.04100
O381        O  0.89714805  0.65886455  0.12751713    -0.76400
O382        O  0.85890912  0.66716541  0.10097766    -0.76500
C383        C  0.85334171  0.64820670  0.09198856     1.04100
O384        O  0.81688574  0.66792066  0.12226351    -0.83900
O385        O  0.81225424  0.64327309  0.16200180    -0.80900
C386        C  0.81763008  0.63400649  0.18070755     0.99600
O387        O  0.83765947  0.62640963  0.18400256    -0.81000
O388        O  0.86350120  0.66538215  0.18874138    -0.83600
C389        C  0.87256893  0.68420529  0.18341485     1.04100
O390        O  0.87929373  0.68800152  0.16316733    -0.76400
O391        O  0.83970110  0.69310549  0.13839413    -0.76500
C392        C  0.82079809  0.68799451  0.12937606     1.04000
Cr393      Cr  0.82984330  0.63812623  0.13351694     1.93700
Cr394      Cr  0.86748182  0.63719590  0.17036291     1.93200
Cr395      Cr  0.86776548  0.67479849  0.13344065     1.39100
O396        O  0.85511076  0.65000247  0.14571015    -1.21600
O397        O  0.60635264  0.83813898  0.14095760    -0.83900
O398        O  0.63318298  0.84743302  0.10311652    -0.80900
C399        C  0.64954328  0.85521961  0.09140946     0.99600
O400        O  0.66873380  0.85947239  0.10056747    -0.80900
O401        O  0.66080112  0.89706579  0.12804930    -0.83600
C402        C  0.65271926  0.90871345  0.14432359     1.04100
O403        O  0.64761060  0.89944591  0.16327323    -0.76400
O404        O  0.60957764  0.87290707  0.15504031    -0.76500
C405        C  0.59753554  0.85709003  0.14667972     1.04100
O406        O  0.64356254  0.81172247  0.15966514    -0.83900
O407        O  0.66830628  0.81738736  0.12038195    -0.80900
C408        C  0.68828501  0.82035122  0.12820584     0.99600
O409        O  0.69382884  0.83885531  0.13780421    -0.81000
O410        O  0.68968181  0.87822645  0.16313446    -0.83600
C411        C  0.68609079  0.87070011  0.18310417     1.04100
O412        O  0.66732292  0.86151092  0.18825265    -0.76400
O413        O  0.62799487  0.83665294  0.18317592    -0.76500
C414        C  0.63510613  0.81662376  0.17886649     1.04000
Cr415      Cr  0.63874851  0.83061340  0.13203320     1.93700
Cr416      Cr  0.67630592  0.86743580  0.13327305     1.93200
Cr417      Cr  0.63905835  0.86675756  0.17045035     1.39100
O418        O  0.65127180  0.85502412  0.14520733    -1.21600
O419        O  0.65822095  0.63337221  0.39326148    -0.83900
O420        O  0.66784429  0.60591004  0.35599030    -0.80900
C421        C  0.64893019  0.59670480  0.35068706     0.99600
O422        O  0.63287906  0.60845982  0.34238365    -0.80900
O423        O  0.60619297  0.64620234  0.33270023    -0.83600
C424        C  0.59673093  0.65183056  0.35138619     1.04100
O425        O  0.60820641  0.66036595  0.36754495    -0.76400
O426        O  0.64536067  0.66872646  0.39524265    -0.76500
C427        C  0.64983192  0.64969652  0.40461224     1.04100
O428        O  0.68801632  0.66855392  0.37574509    -0.83900
O429        O  0.69386450  0.64318565  0.33654222    -0.80900
C430        C  0.68895946  0.63397451  0.31764612     0.99600
O431        O  0.66906024  0.62627191  0.31383036    -0.81000
O432        O  0.64419496  0.66535094  0.30757258    -0.83600
C433        C  0.63528561  0.68439741  0.31221549     1.04100
O434        O  0.62763190  0.68862104  0.33204317    -0.76400
O435        O  0.66634335  0.69365008  0.35809009    -0.76500
C436        C  0.68478603  0.68850808  0.36795748     1.04000
Cr437      Cr  0.67505943  0.63864028  0.36436751     1.93700
Cr438      Cr  0.63892531  0.63757741  0.32610741     1.93200
Cr439      Cr  0.63787024  0.67585670  0.36237533     1.39100
O440        O  0.65053139  0.65064175  0.35100976    -1.21600
O441        O  0.60545291  0.14475330  0.16289490    -0.83900
O442        O  0.63295497  0.10754321  0.15307503    -0.80900
C443        C  0.64925521  0.09620646  0.14463437     0.99600
O444        O  0.66806913  0.10577501  0.13967809    -0.80900
O445        O  0.65844723  0.13272707  0.10218162    -0.83600
C446        C  0.64933971  0.14852984  0.09065202     1.04100
O447        O  0.64388505  0.16739361  0.09989315    -0.76400
O448        O  0.60703489  0.15826565  0.12783782    -0.76500
C449        C  0.59578689  0.14977758  0.14415725     1.04100
O450        O  0.64317753  0.16486611  0.18769535    -0.83900
O451        O  0.66861563  0.12603136  0.18184314    -0.80900
C452        C  0.68832526  0.13428500  0.17832571     0.99600
O453        O  0.69311182  0.14369562  0.15951487    -0.81000
O454        O  0.68704640  0.16871474  0.12011916    -0.83600
C455        C  0.68307437  0.18869509  0.12748775     1.04100
O456        O  0.66425319  0.19349873  0.13679400    -0.76400
O457        O  0.62597230  0.18751240  0.16306607    -0.76500
C458        C  0.63407892  0.18377256  0.18282623     1.04000
Cr459      Cr  0.63836901  0.13682025  0.16937590     1.93700
Cr460      Cr  0.67470104  0.13858627  0.13139130     1.93200
Cr461      Cr  0.63631710  0.17469688  0.13276596     1.39100
O462        O  0.64971687  0.14999194  0.14441329    -1.21600
O463        O  0.65943869  0.39743407  0.36706008    -0.83900
O464        O  0.66802061  0.35985911  0.39439932    -0.80900
C465        C  0.64894205  0.35510620  0.40349511     0.99600
O466        O  0.63280593  0.34682706  0.39178735    -0.80900
O467        O  0.60605405  0.33728793  0.35392516    -0.83600
C468        C  0.59677770  0.35607216  0.34835619     1.04100
O469        O  0.60849861  0.37221790  0.34017215    -0.76400
O470        O  0.64605271  0.39954307  0.33189539    -0.76500
C471        C  0.65108035  0.40893349  0.35081090     1.04100
O472        O  0.68868849  0.37904478  0.33196942    -0.83900
O473        O  0.69367910  0.33973156  0.35725696    -0.80900
C474        C  0.68850998  0.32097049  0.36655181     0.99600
O475        O  0.66856024  0.31754697  0.37426752    -0.81000
O476        O  0.64381707  0.31178277  0.33491445    -0.83600
C477        C  0.63509678  0.31664530  0.31582170     1.04100
O478        O  0.62755333  0.33654561  0.31174421    -0.76400
O479        O  0.66645644  0.36216677  0.30675798    -0.76500
C480        C  0.68513138  0.37157878  0.31194609     1.04000
Cr481      Cr  0.67549624  0.36800408  0.36178571     1.93700
Cr482      Cr  0.63868422  0.33034715  0.36273589     1.93200
Cr483      Cr  0.63811248  0.36674882  0.32464703     1.39100
O484        O  0.65067777  0.35512367  0.34977777    -1.21600
O485        O  0.86073242  0.16764672  0.39483215    -0.83900
O486        O  0.89810098  0.15822843  0.36741921    -0.80900
C487        C  0.90951701  0.15011481  0.35100459     0.99600
O488        O  0.90010397  0.14560039  0.33197068    -0.80900
O489        O  0.87239305  0.10829610  0.34004127    -0.83600
C490        C  0.85622526  0.09676785  0.34844869     1.04100
O491        O  0.83751075  0.10619018  0.35400896    -0.76400
O492        O  0.84693196  0.13275541  0.39193326    -0.76500
C493        C  0.85523075  0.14872010  0.40385704     1.04100
O494        O  0.84140052  0.19390206  0.35773706    -0.83900
O495        O  0.88050940  0.18816874  0.33244841    -0.80900
C496        C  0.87263011  0.18511634  0.31249327     0.99600
O497        O  0.86288474  0.16664531  0.30711988    -0.81000
O498        O  0.83695017  0.12773899  0.31169087    -0.83600
C499        C  0.81704848  0.13525308  0.31578853     1.04100
O500        O  0.81232278  0.14418975  0.33483026    -0.76400
O501        O  0.81847065  0.16901629  0.37415798    -0.76500
C502        C  0.82244087  0.18898865  0.36673091     1.04000
Cr503      Cr  0.86915889  0.17503512  0.36220673     1.93700
Cr504      Cr  0.86722778  0.13804364  0.32469519     1.93200
Cr505      Cr  0.83081010  0.13890350  0.36274282     1.39100
O506        O  0.85578908  0.15057295  0.34994315    -1.21600
O507        O  0.85942200  0.33738403  0.09986719    -0.83900
O508        O  0.89700935  0.34569432  0.12728737    -0.80900
C509        C  0.90860857  0.35402270  0.14350249     0.99600
O510        O  0.89933045  0.35902427  0.16245602    -0.80900
O511        O  0.87249444  0.39681062  0.15393559    -0.83600
C512        C  0.85641765  0.40866184  0.14584550     1.04100
O513        O  0.83754832  0.39957158  0.14027286    -0.76400
O514        O  0.84669223  0.37270826  0.10246771    -0.76500
C515        C  0.85476692  0.35648967  0.09075322     1.04100
O516        O  0.83899468  0.31190952  0.13697641    -0.83900
O517        O  0.87826169  0.31665243  0.16245041    -0.80900
C518        C  0.87082079  0.32033397  0.18245636     0.99600
O519        O  0.86168548  0.33915160  0.18760268    -0.81000
O520        O  0.83667159  0.37844393  0.18239540    -0.83600
C521        C  0.81662631  0.37127920  0.17834636     1.04100
O522        O  0.81161824  0.36229782  0.15938405    -0.76400
O523        O  0.81708360  0.33730296  0.12002362    -0.76500
C524        C  0.82030738  0.31728721  0.12765271     1.04000
Cr525      Cr  0.86744443  0.32987121  0.13253723     1.93700
Cr526      Cr  0.86666076  0.36736834  0.16959905     1.93200
Cr527      Cr  0.83021042  0.36705438  0.13152252     1.39100
O528        O  0.85484052  0.35482979  0.14450828    -1.21600
O529        O  0.10788102  0.15921494  0.36582768    -0.83900
O530        O  0.14474122  0.16856252  0.39389743    -0.80900
C531        C  0.14963277  0.14965220  0.40331777     0.99600
O532        O  0.15803205  0.13343090  0.39184757    -0.80900
O533        O  0.16795095  0.10621298  0.35453048    -0.83600
C534        C  0.14922626  0.09689846  0.34873262     1.04100
O535        O  0.13335441  0.10850319  0.33988201    -0.76400
O536        O  0.10631938  0.14597232  0.33057944    -0.76500
C537        C  0.09667860  0.15083173  0.34938472     1.04100
O538        O  0.12653088  0.18840034  0.33070480    -0.83900
O539        O  0.16520906  0.19398893  0.35675982    -0.80900
C540        C  0.18386145  0.18904248  0.36635036     0.99600
O541        O  0.18738206  0.16915789  0.37423811    -0.81000
O542        O  0.19386696  0.14379938  0.33543844    -0.83600
C543        C  0.18932320  0.13483844  0.31637143     1.04100
O544        O  0.16954059  0.12715601  0.31203939    -0.76400
O545        O  0.14419083  0.16618051  0.30606639    -0.76500
C546        C  0.13446536  0.18480692  0.31086019     1.04000
Cr547      Cr  0.13710667  0.17558918  0.36095123     1.93700
Cr548      Cr  0.17486024  0.13900273  0.36297289     1.93200
Cr549      Cr  0.13919476  0.13794625  0.32414091     1.39100
O550        O  0.15032653  0.15076453  0.34940947    -1.21600
O551        O  0.10553743  0.33749519  0.13848662    -0.83900
O552        O  0.13323976  0.34677743  0.10139684    -0.80900
C553        C  0.14961723  0.35496582  0.09001642     0.99600
O554        O  0.16843019  0.35992812  0.09956499    -0.80900
O555        O  0.15872797  0.39745951  0.12638907    -0.83600
C556        C  0.15006826  0.40909728  0.14234493     1.04100
O557        O  0.14489140  0.39994184  0.16132070    -0.76400
O558        O  0.10758911  0.37246562  0.15231453    -0.76500
C559        C  0.09611868  0.35629918  0.14375192     1.04100
O560        O  0.14262866  0.31205200  0.15875358    -0.83900
O561        O  0.16861609  0.31787245  0.12008907    -0.80900
C562        C  0.18845627  0.32166204  0.12795144     0.99600
O563        O  0.19328896  0.34042552  0.13742153    -0.81000
O564        O  0.18741070  0.37974022  0.16244529    -0.83600
C565        C  0.18369313  0.37210021  0.18236632     1.04100
O566        O  0.16489681  0.36272962  0.18723667    -0.76400
O567        O  0.12592643  0.33704319  0.18139760    -0.76500
C568        C  0.13320858  0.31699751  0.17750463     1.04000
Cr569      Cr  0.13838078  0.33052884  0.13069368     1.93700
Cr570      Cr  0.17497507  0.36838425  0.13233757     1.93200
Cr571      Cr  0.13685549  0.36716780  0.16862263     1.39100
O572        O  0.15000202  0.35539367  0.14385820    -1.21600
O573        O  0.33723910  0.14600267  0.09979089    -0.83900
O574        O  0.34600177  0.10846539  0.12709270    -0.80900
C575        C  0.35426877  0.09696200  0.14336891     0.99600
O576        O  0.35916066  0.10634186  0.16230058    -0.80900
O577        O  0.39673332  0.13347503  0.15337720    -0.83600
C578        C  0.40837118  0.14964429  0.14510095     1.04100
O579        O  0.39914682  0.16863678  0.14015497    -0.76400
O580        O  0.37221297  0.15976951  0.10232062    -0.76500
C581        C  0.35614597  0.15130519  0.09063057     1.04100
O582        O  0.31150303  0.16594243  0.13692866    -0.83900
O583        O  0.31680085  0.12696321  0.16237476    -0.80900
C584        C  0.32039581  0.13481504  0.18225866     0.99600
O585        O  0.33923825  0.14391507  0.18739173    -0.81000
O586        O  0.37835398  0.16904990  0.18228330    -0.83600
C587        C  0.37034338  0.18885382  0.17878309     1.04100
O588        O  0.36136237  0.19392981  0.15986019    -0.76400
O589        O  0.33660101  0.18853853  0.12041756    -0.76500
C590        C  0.31662951  0.18481011  0.12786406     1.04000
Cr591      Cr  0.32985013  0.13782997  0.13241878     1.93700
Cr592      Cr  0.36739618  0.13905068  0.16935762     1.93200
Cr593      Cr  0.36647891  0.17575518  0.13168156     1.39100
O594        O  0.35464959  0.15078752  0.14437729    -1.21600
O595        O  0.39948941  0.33825662  0.35435707    -0.83900
O596        O  0.37215789  0.34776060  0.39177787    -0.80900
C597        C  0.35589271  0.35610879  0.40322093     0.99600
O598        O  0.33696673  0.36092143  0.39381837    -0.80900
O599        O  0.34595253  0.39819839  0.36648099    -0.83600
C600        C  0.35441397  0.40969068  0.35033022     1.04100
O601        O  0.35971045  0.40034221  0.33149660    -0.76400
O602        O  0.39724852  0.37322505  0.34065851    -0.76500
C603        C  0.40887117  0.35704475  0.34892003     1.04100
O604        O  0.36198170  0.31272042  0.33468755    -0.83900
O605        O  0.33664971  0.31849146  0.37373556    -0.80900
C606        C  0.31673852  0.32202221  0.36594656     0.99600
O607        O  0.31176585  0.34067923  0.35639179    -0.81000
O608        O  0.31719822  0.37969076  0.33088119    -0.83600
C609        C  0.32102138  0.37207453  0.31095389     1.04100
O610        O  0.33986790  0.36284212  0.30608599    -0.76400
O611        O  0.37884456  0.33748414  0.31195661    -0.76500
C612        C  0.37105955  0.31762902  0.31577212     1.04000
Cr613      Cr  0.36671474  0.33126414  0.36263718     1.93700
Cr614      Cr  0.32994938  0.36887334  0.36102591     1.93200
Cr615      Cr  0.36791575  0.36761674  0.32453947     1.39100
O616        O  0.35493299  0.35599521  0.34945913    -1.21600
O617        O  0.13328432  0.65886778  0.10173598    -0.83900
O618        O  0.10605937  0.66759483  0.13924439    -0.80900
C619        C  0.09695932  0.64850213  0.14401810     0.99600
O620        O  0.10877924  0.63238147  0.15213779    -0.80900
O621        O  0.14671641  0.60565247  0.16109715    -0.83600
C622        C  0.15235706  0.59656747  0.14222377     1.04100
O623        O  0.16084144  0.60838432  0.12630744    -0.76400
O624        O  0.16864975  0.64618923  0.09931025    -0.76500
C625        C  0.14956246  0.65082148  0.09012340     1.04100
O626        O  0.16841654  0.68855841  0.11973002    -0.83900
O627        O  0.14331314  0.69334988  0.15907980    -0.80900
C628        C  0.13420712  0.68812877  0.17789342     0.99600
O629        O  0.12670500  0.66809758  0.18146983    -0.81000
O630        O  0.16593147  0.64316981  0.18701913    -0.83600
C631        C  0.18509275  0.63469404  0.18202780     1.04100
O632        O  0.18921365  0.62744399  0.16201948    -0.76400
O633        O  0.19378127  0.66671849  0.13674579    -0.76500
C634        C  0.18842676  0.68537788  0.12738934     1.04000
Cr635      Cr  0.13868359  0.67511982  0.13094302     1.93700
Cr636      Cr  0.13802286  0.63821262  0.16845801     1.93200
Cr637      Cr  0.17612223  0.63813351  0.13198198     1.39100
O638        O  0.15089544  0.65038714  0.14374176    -1.21600
O639        O  0.39753836  0.63267104  0.34027636    -0.83900
O640        O  0.35944885  0.60595961  0.33205742    -0.80900
C641        C  0.35477005  0.59679894  0.35113591     0.99600
O642        O  0.34686725  0.60847226  0.36746267    -0.80900
O643        O  0.33851727  0.64609022  0.39472825    -0.83600
C644        C  0.35763486  0.65093433  0.40373678     1.04100
O645        O  0.37373597  0.65897184  0.39187113    -0.76400
O646        O  0.40037224  0.66765724  0.35397706    -0.76500
C647        C  0.40938223  0.64866766  0.34867429     1.04100
O648        O  0.37907314  0.66844464  0.31176071    -0.83900
O649        O  0.33948794  0.64363492  0.30705532    -0.80900
C650        C  0.32068511  0.63456354  0.31240614     0.99600
O651        O  0.31740647  0.62675870  0.33234342    -0.81000
O652        O  0.31280417  0.66602421  0.35752542    -0.83600
C653        C  0.31816586  0.68491027  0.36644874     1.04100
O654        O  0.33817328  0.68838410  0.37403516    -0.76400
O655        O  0.36305849  0.69359669  0.33468058    -0.76500
C656        C  0.37190164  0.68850488  0.31569943     1.04000
Cr657      Cr  0.36793535  0.63854781  0.32475880     1.93700
Cr658      Cr  0.33085813  0.63779909  0.36212529     1.93200
Cr659      Cr  0.36792477  0.67518852  0.36267082     1.39100
O660        O  0.35565971  0.65044625  0.34991349    -1.21600
O661        O  0.16838983  0.89979928  0.35401983    -0.83900
O662        O  0.15904811  0.87229882  0.39124825    -0.80900
C663        C  0.15050040  0.85611486  0.40265949     0.99600
O664        O  0.14529034  0.83728829  0.39316252    -0.80900
O665        O  0.10805100  0.84653607  0.36555685    -0.83600
C666        C  0.09667968  0.85494396  0.34926540     1.04100
O667        O  0.10622061  0.86029513  0.33056113    -0.76400
O668        O  0.13340283  0.89769870  0.34029869    -0.76500
C669        C  0.14954797  0.90920797  0.34883171     1.04100
O670        O  0.19370789  0.86219587  0.33403125    -0.83900
O671        O  0.18793091  0.83668857  0.37281892    -0.80900
C672        C  0.18425940  0.81688787  0.36476911     0.99600
O673        O  0.16540305  0.81201762  0.35553812    -0.81000
O674        O  0.12662724  0.81786526  0.32990921    -0.83600
C675        C  0.13444100  0.82176671  0.31007685     1.04100
O676        O  0.14378233  0.84060965  0.30537054    -0.76400
O677        O  0.16915891  0.87955757  0.31150230    -0.76500
C678        C  0.18891515  0.87152638  0.31522297     1.04000
Cr679      Cr  0.17530405  0.86690835  0.36201788     1.93700
Cr680      Cr  0.13735588  0.83039946  0.36022706     1.93200
Cr681      Cr  0.13898516  0.86853557  0.32391841     1.39100
O682        O  0.15045357  0.85535839  0.34881286    -1.21600
O683        O  0.39855493  0.87374669  0.15408390    -0.83900
O684        O  0.36063595  0.90016371  0.16331307    -0.80900
C685        C  0.35569439  0.90944416  0.14437238     0.99600
O686        O  0.34762408  0.89778514  0.12808125    -0.80900
O687        O  0.33934516  0.86019375  0.10060498    -0.83600
C688        C  0.35829592  0.85505604  0.09141360     1.04100
O689        O  0.37442645  0.84678164  0.10310388    -0.76400
O690        O  0.40153833  0.83858774  0.14088274    -0.76500
C691        C  0.41045883  0.85772948  0.14592667     1.04100
O692        O  0.38108700  0.83781626  0.18300239    -0.83900
O693        O  0.34150351  0.86220728  0.18838243    -0.80900
C694        C  0.32252193  0.87102943  0.18333442     0.99600
O695        O  0.31872396  0.87874709  0.16343333    -0.81000
O696        O  0.31380394  0.83980121  0.13771997    -0.83600
C697        C  0.31909808  0.82095540  0.12867043     1.04100
O698        O  0.33917576  0.81741130  0.12135391    -0.76400
O699        O  0.36429176  0.81262796  0.16069994    -0.76500
C700        C  0.37341613  0.81785407  0.17952684     1.04000
Cr701      Cr  0.36946540  0.86759445  0.17020232     1.93700
Cr702      Cr  0.33184707  0.86818036  0.13333186     1.93200
Cr703      Cr  0.36896912  0.83080428  0.13249576     1.39100
O704        O  0.35681289  0.85559586  0.14524078    -1.21600
C705        C  0.27290276  0.87343870  0.23249838     0.18500
C706        C  0.25461393  0.88889983  0.23090237    -0.10600
C707        C  0.23748947  0.88902749  0.24767016    -0.11500
C708        C  0.23857690  0.87370286  0.26611288     0.20100
C709        C  0.25686268  0.85822844  0.26770460    -0.13500
C710        C  0.27398552  0.85810085  0.25093824    -0.11800
C711        C  0.22091563  0.87372945  0.28333435     0.01000
C712        C  0.20623238  0.87320114  0.29785708    -0.31800
C713        C  0.29042378  0.87317908  0.21513565     0.02400
C714        C  0.30505918  0.87257448  0.20056705    -0.33500
H715        H  0.25358127  0.90079507  0.21670725     0.13500
H716        H  0.22340509  0.90104096  0.24624018     0.13300
H717        H  0.25785668  0.84627720  0.28185870     0.13100
H718        H  0.28802970  0.84603085  0.25232940     0.12200
C719        C  0.37604432  0.73713586  0.26558575     0.18500
C720        C  0.37878487  0.73029962  0.24271541    -0.10600
C721        C  0.37891871  0.74666306  0.22519223    -0.11500
C722        C  0.37632450  0.76996220  0.23044063     0.20100
C723        C  0.37366305  0.77681413  0.25332201    -0.13500
C724        C  0.37352852  0.76044539  0.27085052    -0.11800
C725        C  0.37602884  0.78676867  0.21234669     0.01000
C726        C  0.37525320  0.80087913  0.19725213    -0.31800
C727        C  0.37530568  0.72019642  0.28354004     0.02400
C728        C  0.37410203  0.70581337  0.29834474    -0.33500
H729        H  0.38067306  0.71232377  0.23842364     0.13500
H730        H  0.38092135  0.74114911  0.20757203     0.13300
H731        H  0.37157512  0.79477182  0.25759068     0.13100
H732        H  0.37132557  0.76593633  0.28845352     0.12200
C733        C  0.26902853  0.73466673  0.36816249     0.18500
C734        C  0.27209978  0.75491315  0.35560944    -0.10600
C735        C  0.25483184  0.77155597  0.35516710    -0.11500
C736        C  0.23438687  0.76804543  0.36727466     0.20100
C737        C  0.23129623  0.74775993  0.37974719    -0.13500
C738        C  0.24855809  0.73112375  0.38018919    -0.11800
C739        C  0.21660905  0.78521567  0.36688281     0.01000
C740        C  0.20178089  0.79963356  0.36629135    -0.31800
C741        C  0.28668485  0.71739101  0.36843296     0.02400
C742        C  0.30120899  0.70267555  0.36808882    -0.33500
H743        H  0.28781020  0.75781589  0.34615208     0.13500
H744        H  0.25741308  0.78712602  0.34541104     0.13300
H745        H  0.21555155  0.74480620  0.38912827     0.13100
H746        H  0.24593752  0.71551157  0.38986679     0.12200
C747        C  0.27042851  0.77059651  0.12437555     0.18500
C748        C  0.24736190  0.77613403  0.12058963    -0.10600
C749        C  0.23067540  0.75885617  0.12028441    -0.11500
C750        C  0.23693276  0.73591976  0.12376621     0.20100
C751        C  0.26001294  0.73037967  0.12742904    -0.13500
C752        C  0.27669151  0.74764951  0.12773489    -0.11800
C753        C  0.21968377  0.71814659  0.12414881     0.01000
C754        C  0.20537285  0.70319352  0.12519282    -0.31800
C755        C  0.28758853  0.78844104  0.12521367     0.02400
C756        C  0.30197635  0.80330951  0.12643218    -0.33500
H757        H  0.24226923  0.79379099  0.11802241     0.13500
H758        H  0.21289265  0.76339996  0.11749897     0.13300
H759        H  0.26508553  0.71274865  0.13020914     0.13100
H760        H  0.29444432  0.74312229  0.13073386     0.12200
C761        C  0.13068592  0.73771295  0.22716919     0.18500
C762        C  0.12962647  0.76082120  0.22069857    -0.10600
C763        C  0.12971140  0.77804105  0.23742363    -0.11500
C764        C  0.13085784  0.77223748  0.26070388     0.20100
C765        C  0.13184906  0.74912844  0.26716684    -0.13500
C766        C  0.13176510  0.73191434  0.25044709    -0.11800
C767        C  0.13141897  0.78993501  0.27795070     0.01000
C768        C  0.13242531  0.80455318  0.29256803    -0.31800
C769        C  0.13111508  0.72000752  0.20993485     0.02400
C770        C  0.13208152  0.70531880  0.19539407    -0.33500
H771        H  0.12886230  0.76551528  0.20275398     0.13500
H772        H  0.12900575  0.79584925  0.23220913     0.13300
H773        H  0.13280730  0.74443476  0.28510065     0.13100
H774        H  0.13266580  0.71411493  0.25565774     0.12200
C775        C  0.26984575  0.63213920  0.26431157     0.18500
C776        C  0.24689293  0.62954641  0.27086200    -0.10600
C777        C  0.22954032  0.62964414  0.25427809    -0.11500
C778        C  0.23505574  0.63233213  0.23104775     0.20100
C779        C  0.25800005  0.63499301  0.22451971    -0.13500
C780        C  0.27534210  0.63489521  0.24109347    -0.11800
C781        C  0.21722585  0.63253420  0.21392392     0.01000
C782        C  0.20248530  0.63312531  0.19940891    -0.31800
C783        C  0.28773319  0.63226187  0.28137176     0.02400
C784        C  0.30279253  0.63289272  0.29555202    -0.33500
H785        H  0.24241295  0.62748830  0.28877472     0.13500
H786        H  0.21187435  0.62765224  0.25955027     0.13300
H787        H  0.26248187  0.63716538  0.20662026     0.13100
H788        H  0.29299514  0.63700085  0.23582348     0.12200
C789        C  0.35871790  0.52726760  0.35592802     0.18500
C790        C  0.33806049  0.51527469  0.35831826    -0.10600
C791        C  0.33795707  0.49131815  0.35807862    -0.11500
C792        C  0.35850972  0.47922445  0.35545363     0.20100
C793        C  0.37921380  0.49119801  0.35327265    -0.13500
C794        C  0.37931712  0.51518788  0.35351050    -0.11800
C795        C  0.35816862  0.45458361  0.35438086     0.01000
C796        C  0.35699110  0.43400748  0.35288152    -0.31800
C797        C  0.35854292  0.55192076  0.35517741     0.02400
C798        C  0.35737539  0.57250004  0.35376793    -0.33500
H799        H  0.32203021  0.52443969  0.36011104     0.13500
H800        H  0.32183912  0.48223378  0.35970679     0.13300
H801        H  0.39519089  0.48201494  0.35116507     0.13100
H802        H  0.39538228  0.52429528  0.35156560     0.12200
C803        C  0.36095318  0.97915778  0.14022882     0.18500
C804        C  0.35606221  0.99100658  0.11991554    -0.10600
C805        C  0.35583556  0.01501091  0.11972491    -0.11500
C806        C  0.36050084  0.02731619  0.13984336     0.20100
C807        C  0.36571565  0.01546741  0.16008117    -0.13500
C808        C  0.36594175  0.99147026  0.16027196    -0.11800
C809        C  0.35911411  0.05201380  0.13998162     0.01000
C810        C  0.35723235  0.07261182  0.14090558    -0.31800
C811        C  0.35998318  0.95444223  0.14075554     0.02400
C812        C  0.35838050  0.93382799  0.14188021    -0.33500
H813        H  0.35211670  0.98170215  0.10433011     0.13500
H814        H  0.35171951  0.02395718  0.10398590     0.13300
H815        H  0.36929140  0.02476524  0.17576392     0.13100
H816        H  0.36968721  0.98252623  0.17610827     0.12200
C817        C  0.37268122  0.23655013  0.23000728     0.18500
C818        C  0.36094515  0.23230306  0.25052485    -0.10600
C819        C  0.36122248  0.24859029  0.26814892    -0.11500
C820        C  0.37324589  0.26919667  0.26534705     0.20100
C821        C  0.38498587  0.27343887  0.24484267    -0.13500
C822        C  0.38470929  0.25715362  0.22722049    -0.11800
C823        C  0.37324355  0.28609709  0.28335547     0.01000
C824        C  0.37268760  0.30038873  0.29829375    -0.31800
C825        C  0.37227723  0.21985703  0.21178810     0.02400
C826        C  0.37168885  0.20582659  0.19658625    -0.33500
H827        H  0.35155405  0.21644983  0.25286940     0.13500
H828        H  0.35202760  0.24515700  0.28390073     0.13300
H829        H  0.39428229  0.28934042  0.24245869     0.13100
H830        H  0.39381230  0.26063981  0.21143005     0.12200
C831        C  0.14621055  0.47872222  0.13773003     0.18500
C832        C  0.13938747  0.49093295  0.11818537    -0.10600
C833        C  0.14005750  0.51496280  0.11817517    -0.11500
C834        C  0.14756284  0.52685483  0.13770518     0.20100
C835        C  0.15432443  0.51459873  0.15720168    -0.13500
C836        C  0.15365157  0.49064753  0.15721296    -0.11800
C837        C  0.14853107  0.55157510  0.13792076     0.01000
C838        C  0.14994374  0.57218989  0.13932474    -0.31800
C839        C  0.14612081  0.45400083  0.13792026     0.02400
C840        C  0.14724527  0.43339284  0.13942269    -0.33500
H841        H  0.13366334  0.48190838  0.10297762     0.13500
H842        H  0.13481217  0.52423225  0.10298247     0.13300
H843        H  0.16018850  0.52356654  0.17239201     0.13100
H844        H  0.15903465  0.48141731  0.17238909     0.12200
C845        C  0.27062081  0.37622959  0.26243449     0.18500
C846        C  0.27451407  0.36845586  0.24003438    -0.10600
C847        C  0.25668302  0.36845487  0.22396415    -0.11500
C848        C  0.23482185  0.37622137  0.23017996     0.20100
C849        C  0.23098516  0.38420846  0.25252091    -0.13500
C850        C  0.24882337  0.38421121  0.26859583    -0.11800
C851        C  0.21631140  0.37552255  0.21374953     0.01000
C852        C  0.20115188  0.37430179  0.19967611    -0.31800
C853        C  0.28876860  0.37544462  0.27923860     0.02400
C854        C  0.30367285  0.37421311  0.29356235    -0.33500
H855        H  0.29127037  0.36219929  0.23504996     0.13500
H856        H  0.25988237  0.36222128  0.20677644     0.13300
H857        H  0.21416924  0.39024369  0.25756945     0.13100
H858        H  0.24557440  0.39022469  0.28585239     0.12200
C859        C  0.26875475  0.23556249  0.12436006     0.18500
C860        C  0.24873826  0.23368095  0.13745250    -0.10600
C861        C  0.23268902  0.25144927  0.13745592    -0.11500
C862        C  0.23656378  0.27119787  0.12438233     0.20100
C863        C  0.25655835  0.27308881  0.11123185    -0.13500
C864        C  0.27263041  0.25529523  0.11122818    -0.11800
C865        C  0.22005771  0.28950248  0.12472405     0.01000
C866        C  0.20579814  0.30439713  0.12580235    -0.31800
C867        C  0.28544507  0.21741553  0.12478420     0.02400
C868        C  0.29952803  0.20234114  0.12580641    -0.33500
H869        H  0.24559791  0.21854632  0.14771707     0.13500
H870        H  0.21730021  0.24982744  0.14771662     0.13300
H871        H  0.25974322  0.28829574  0.10109039     0.13100
H872        H  0.28809301  0.25695905  0.10108922     0.12200
C873        C  0.14384574  0.02715607  0.35364459     0.18500
C874        C  0.13063317  0.01491332  0.33770605    -0.10600
C875        C  0.13076617  0.99089532  0.33777707    -0.11500
C876        C  0.14411367  0.97894316  0.35378926     0.20100
C877        C  0.15702336  0.99118806  0.36996194    -0.13500
C878        C  0.15688965  0.01519960  0.36989156    -0.11800
C879        C  0.14529893  0.95421291  0.35301883     0.01000
C880        C  0.14695011  0.93360141  0.35161440    -0.31800
C881        C  0.14481184  0.05189045  0.35271758     0.02400
C882        C  0.14644738  0.07250266  0.35130777    -0.33500
H883        H  0.12051803  0.02392283  0.32500689     0.13500
H884        H  0.12075433  0.98166337  0.32514236     0.13300
H885        H  0.16746389  0.98218386  0.38239547     0.13100
H886        H  0.16722601  0.02442795  0.38226136     0.12200
C887        C  0.23335708  0.23846062  0.36998715     0.18500
C888        C  0.22719387  0.26167666  0.37023140    -0.10600
C889        C  0.24413959  0.27867108  0.37022768    -0.11500
C890        C  0.26735383  0.27254475  0.36997423     0.20100
C891        C  0.27351418  0.24933072  0.36979698    -0.13500
C892        C  0.25657073  0.23233844  0.36980034    -0.11800
C893        C  0.28481593  0.29003523  0.36939213     0.01000
C894        C  0.29943486  0.30463839  0.36824934    -0.31800
C895        C  0.21590121  0.22095621  0.36951081     0.02400
C896        C  0.20127868  0.20633980  0.36852336    -0.33500
H897        H  0.20930423  0.26663572  0.37029922     0.13500
H898        H  0.23915449  0.29654664  0.37028443     0.13300
H899        H  0.29140112  0.24437169  0.36951818     0.13100
H900        H  0.26155630  0.21446573  0.36953244     0.12200
C901        C  0.27143059  0.13257311  0.23195788     0.18500
C902        C  0.24857222  0.12730605  0.22684811    -0.10600
C903        C  0.23211441  0.12729447  0.24425447    -0.11500
C904        C  0.23844219  0.13254802  0.26682595     0.20100
C905        C  0.26128358  0.13791575  0.27192144    -0.13500
C906        C  0.27774232  0.13792736  0.25451418    -0.11800
C907        C  0.22144216  0.13268202  0.28466134     0.01000
C908        C  0.20691349  0.13324274  0.29931418    -0.31800
C909        C  0.28839276  0.13262788  0.21408410     0.02400
C910        C  0.30286801  0.13315994  0.19937621    -0.33500
H911        H  0.24349659  0.12322786  0.20946188     0.13500
H912        H  0.21446845  0.12321356  0.24011691     0.13300
H913        H  0.26633915  0.14209656  0.28929067     0.13100
H914        H  0.29537000  0.14211160  0.25863350     0.12200
C915        C  0.12793451  0.26761204  0.22685250     0.18500
C916        C  0.13042752  0.27388917  0.24991696    -0.10600
C917        C  0.13080729  0.25707407  0.26701403    -0.11500
C918        C  0.12869484  0.23385867  0.26116371     0.20100
C919        C  0.12582983  0.22759661  0.23812798    -0.13500
C920        C  0.12545215  0.24442203  0.22102040    -0.11800
C921        C  0.13014019  0.21648681  0.27870452     0.01000
C922        C  0.13191007  0.20201182  0.29339356    -0.31800
C923        C  0.12881141  0.28488936  0.20919165     0.02400
C924        C  0.13043276  0.29950377  0.19463191    -0.33500
H925        H  0.13239828  0.29174883  0.25465094     0.13500
H926        H  0.13304355  0.26214707  0.28474133     0.13300
H927        H  0.12418906  0.20971190  0.23337115     0.13100
H928        H  0.12354796  0.23933622  0.20325895     0.12200
C929        C  0.02640384  0.36083826  0.13872246     0.18500
C930        C  0.01417284  0.37341394  0.15514510    -0.10600
C931        C  0.99017749  0.37311098  0.15513778    -0.11500
C932        C  0.97823453  0.36022663  0.13871123     0.20100
C933        C  0.99046358  0.34792615  0.12208348    -0.13500
C934        C  0.01445880  0.34822823  0.12209156    -0.11800
C935        C  0.95353450  0.35886397  0.13949711     0.01000
C936        C  0.93295546  0.35699115  0.14086474    -0.31800
C937        C  0.05112730  0.36012774  0.13952572     0.02400
C938        C  0.07174044  0.35879734  0.14097052    -0.33500
H939        H  0.02317617  0.38317010  0.16814207     0.13500
H940        H  0.98095459  0.38264200  0.16813606     0.13300
H941        H  0.98146491  0.33784215  0.10933695     0.13100
H942        H  0.02368671  0.33836867  0.10934529     0.12200
C943        C  0.02718739  0.14533901  0.35445484     0.18500
C944        C  0.01526144  0.16271440  0.36596898    -0.10600
C945        C  0.99129973  0.16256985  0.36642210    -0.11500
C946        C  0.97911247  0.14504778  0.35536485     0.20100
C947        C  0.99104409  0.12749746  0.34410311    -0.13500
C948        C  0.01502386  0.12764309  0.34364908    -0.11800
C949        C  0.95442572  0.14566708  0.35474387     0.01000
C950        C  0.93383550  0.14713061  0.35346674    -0.31800
C951        C  0.05182177  0.14616616  0.35311218     0.02400
C952        C  0.07237253  0.14778688  0.35161915    -0.33500
H953        H  0.02447089  0.17651815  0.37432492     0.13500
H954        H  0.98227997  0.17628439  0.37510688     0.13300
H955        H  0.98182103  0.11391106  0.33541694     0.13100
H956        H  0.02405324  0.11414978  0.33463448     0.12200
C957        C  0.87648531  0.23560915  0.26431238     0.18500
C958        C  0.88036889  0.25846239  0.27066731    -0.10600
C959        C  0.87994676  0.27577989  0.25408320    -0.11500
C960        C  0.87563413  0.27031881  0.23107900     0.20100
C961        C  0.87190844  0.24745123  0.22471747    -0.13500
C962        C  0.87233084  0.23014675  0.24128900    -0.11800
C963        C  0.87456413  0.28815846  0.21406145     0.01000
C964        C  0.87313544  0.30292261  0.19967129    -0.31800
C965        C  0.87612185  0.21784028  0.28143408     0.02400
C966        C  0.87500125  0.20287534  0.29564362    -0.33500
H967        H  0.88352538  0.26289877  0.28842415     0.13500
H968        H  0.88280264  0.29340997  0.25921120     0.13300
H969        H  0.86850831  0.24303220  0.20699976     0.13100
H970        H  0.86923126  0.21254894  0.23618530     0.12200
C971        C  0.47877024  0.36131070  0.35203380     0.18500
C972        C  0.49092032  0.35293084  0.37099416    -0.10600
C973        C  0.51491966  0.35277354  0.37086340    -0.11500
C974        C  0.52695686  0.36098816  0.35177209     0.20100
C975        C  0.51481319  0.36954141  0.33288145    -0.13500
C976        C  0.49081343  0.36969882  0.33301195    -0.11800
C977        C  0.55168551  0.36002919  0.35128317     0.01000
C978        C  0.57232309  0.35858872  0.35036166    -0.31800
C979        C  0.45401685  0.36067209  0.35180575     0.02400
C980        C  0.43335026  0.35945072  0.35100396    -0.33500
H981        H  0.48185147  0.34632365  0.38576932     0.13500
H982        H  0.52407585  0.34604574  0.38554882     0.13300
H983        H  0.52388284  0.37587410  0.31798277     0.13100
H984        H  0.48165639  0.37615272  0.31820110     0.12200
C985        C  0.77225728  0.23769198  0.36950787     0.18500
C986        C  0.76082754  0.24323415  0.38990093    -0.10600
C987        C  0.74351574  0.25985732  0.38988075    -0.11500
C988        C  0.73753686  0.27102830  0.36946437     0.20100
C989        C  0.74886855  0.26535181  0.34905880    -0.13500
C990        C  0.76616167  0.24874878  0.34907991    -0.11800
C991        C  0.72001293  0.28848140  0.36938741     0.01000
C992        C  0.70558093  0.30329770  0.36857278    -0.31800
C993        C  0.79018362  0.22067828  0.36943922     0.02400
C994        C  0.80507496  0.20634111  0.36867126    -0.33500
H995        H  0.76533571  0.23476858  0.40579527     0.13500
H996        H  0.73487888  0.26405912  0.40576650     0.13300
H997        H  0.74440362  0.27382902  0.33315822     0.13100
H998        H  0.77481694  0.24458380  0.33319155     0.12200
C999        C  0.76752193  0.37611823  0.22783273     0.18500
C1000       C  0.74430089  0.37405124  0.22209095    -0.10600
C1001       C  0.72763266  0.37419238  0.23930485    -0.11500
C1002       C  0.73409623  0.37639558  0.26233723     0.20100
C1003       C  0.75730394  0.37867498  0.26806910    -0.13500
C1004       C  0.77397702  0.37853565  0.25085006    -0.11800
C1005       C  0.71697633  0.37560508  0.28007654     0.01000
C1006       C  0.70249658  0.37415779  0.29473930    -0.31800
C1007       C  0.78473047  0.37514730  0.21018808     0.02400
C1008       C  0.79923026  0.37370339  0.19554439    -0.33500
H1009       H  0.73911814  0.37211269  0.20437039     0.13500
H1010       H  0.70973610  0.37234862  0.23467761     0.13300
H1011       H  0.76250339  0.38031970  0.28581371     0.13100
H1012       H  0.79189515  0.38008699  0.25549490     0.12200
C1013       C  0.47794341  0.14442703  0.13941304     0.18500
C1014       C  0.48997232  0.12691955  0.15063385    -0.10600
C1015       C  0.51397668  0.12688118  0.15066209    -0.11500
C1016       C  0.52609858  0.14434682  0.13946377     0.20100
C1017       C  0.51405155  0.16162886  0.12793486    -0.13500
C1018       C  0.49007025  0.16166770  0.12790829    -0.11800
C1019       C  0.55080996  0.14512037  0.14051058     0.01000
C1020       C  0.57140970  0.14674940  0.14187376    -0.31800
C1021       C  0.45325536  0.14531776  0.14054221     0.02400
C1022       C  0.43268969  0.14689373  0.14222475    -0.33500
H1023       H  0.48081452  0.11352903  0.15964767     0.13500
H1024       H  0.52306385  0.11344741  0.15969181     0.13300
H1025       H  0.52319115  0.17525692  0.11926701     0.13100
H1026       H  0.48099470  0.17533803  0.11922759     0.12200
C1027       C  0.76857366  0.27016187  0.12365032     0.18500
C1028       C  0.77009624  0.25064709  0.10969487    -0.10600
C1029       C  0.75235831  0.23446167  0.10955948    -0.11500
C1030       C  0.73297936  0.23770224  0.12337440     0.20100
C1031       C  0.73138137  0.25731040  0.13718062    -0.13500
C1032       C  0.74910842  0.27348560  0.13731637    -0.11800
C1033       C  0.71504946  0.22065961  0.12389723     0.01000
C1034       C  0.70027604  0.20619988  0.12510348    -0.31800
C1035       C  0.78708527  0.28657164  0.12430325     0.02400
C1036       C  0.80243141  0.30043173  0.12547106    -0.33500
H1037       H  0.78505879  0.24785619  0.09906444     0.13500
H1038       H  0.75383702  0.21936071  0.09885826     0.13300
H1039       H  0.71652438  0.25999730  0.14798740     0.13100
H1040       H  0.74772128  0.28847021  0.14819432     0.12200
C1041       C  0.76791993  0.13130888  0.26586047     0.18500
C1042       C  0.74657545  0.14191623  0.26883041    -0.10600
C1043       C  0.73050218  0.14188563  0.25097951    -0.11500
C1044       C  0.73565139  0.13125904  0.23003318     0.20100
C1045       C  0.75688506  0.12042168  0.22717160    -0.13500
C1046       C  0.77295184  0.12045056  0.24501716    -0.11800
C1047       C  0.71932568  0.13180888  0.21140789     0.01000
C1048       C  0.70546197  0.13269280  0.19602622    -0.31800
C1049       C  0.78489524  0.13212470  0.28388022     0.02400
C1050       C  0.79946398  0.13328322  0.29857456    -0.33500
H1051       H  0.74245942  0.15038931  0.28482577     0.13500
H1052       H  0.71414680  0.15032120  0.25344158     0.13300
H1053       H  0.76109150  0.11213877  0.21110266     0.13100
H1054       H  0.78938951  0.11220448  0.24247554     0.12200
C1055       C  0.63255578  0.23321335  0.23231872     0.18500
C1056       C  0.63926448  0.22771690  0.25472139    -0.10600
C1057       C  0.63932099  0.24460870  0.27176867    -0.11500
C1058       C  0.63267945  0.26707372  0.26648547     0.20100
C1059       C  0.62604873  0.27257606  0.24407052    -0.13500
C1060       C  0.62599229  0.25568989  0.22702891    -0.11800
C1061       C  0.63289689  0.28452260  0.28396477     0.01000
C1062       C  0.63350682  0.29921032  0.29851761    -0.31800
C1063       C  0.63248310  0.21584058  0.21476359     0.02400
C1064       C  0.63276998  0.20125193  0.20010333    -0.33500
H1065       H  0.64444031  0.21040857  0.25899427     0.13500
H1066       H  0.64455484  0.24017207  0.28902534     0.13300
H1067       H  0.62095493  0.28989980  0.23977376     0.13100
H1068       H  0.62084034  0.26014977  0.20975646     0.12200
C1069       C  0.47895214  0.64536453  0.35511016     0.18500
C1070       C  0.49170494  0.62536020  0.35136269    -0.10600
C1071       C  0.51568517  0.62611263  0.35185088    -0.11500
C1072       C  0.52705406  0.64686823  0.35608428     0.20100
C1073       C  0.51428843  0.66678530  0.36022919    -0.13500
C1074       C  0.49032482  0.66603293  0.35974413    -0.11800
C1075       C  0.55174167  0.64795033  0.35528231     0.01000
C1076       C  0.57233530  0.64936792  0.35383150    -0.31800
C1077       C  0.45428758  0.64497308  0.35339876     0.02400
C1078       C  0.43370553  0.64583923  0.35142536    -0.33500
H1079       H  0.48313502  0.60928519  0.34773738     0.13500
H1080       H  0.52535065  0.61060155  0.34858756     0.13300
H1081       H  0.52285126  0.68294348  0.36348706     0.13100
H1082       H  0.48067612  0.68162778  0.36264300     0.12200
C1083       C  0.64469350  0.52687956  0.35497725     0.18500
C1084       C  0.62773445  0.51445524  0.34329342    -0.10600
C1085       C  0.62811634  0.49042950  0.34337606    -0.11500
C1086       C  0.64546273  0.47867658  0.35514381     0.20100
C1087       C  0.66228885  0.49111510  0.36696815    -0.13500
C1088       C  0.66190706  0.51511034  0.36688631    -0.11800
C1089       C  0.64650487  0.45394008  0.35448510     0.01000
C1090       C  0.64819067  0.43331941  0.35331305    -0.31800
C1091       C  0.64497523  0.55163047  0.35416889     0.02400
C1092       C  0.64623207  0.57228144  0.35300839    -0.33500
H1093       H  0.61437844  0.52332513  0.33393156     0.13500
H1094       H  0.61506067  0.48104289  0.33408426     0.13300
H1095       H  0.67585050  0.48226680  0.37604951     0.13100
H1096       H  0.67516771  0.52448005  0.37589794     0.12200
C1097       C  0.47998385  0.86370063  0.14234334     0.18500
C1098       C  0.49188968  0.87134194  0.16177931    -0.10600
C1099       C  0.51586032  0.87120449  0.16203895    -0.11500
C1100       C  0.52804584  0.86342316  0.14285920     0.20100
C1101       C  0.51614495  0.85609362  0.12331253    -0.13500
C1102       C  0.49217688  0.85622954  0.12305328    -0.11800
C1103       C  0.55267973  0.86211665  0.14355637     0.01000
C1104       C  0.57322949  0.86020470  0.14460123    -0.31800
C1105       C  0.45532475  0.86258940  0.14258135     0.02400
C1106       C  0.43475607  0.86077953  0.14354604    -0.33500
H1107       H  0.48265001  0.87707566  0.17683422     0.13500
H1108       H  0.52486864  0.87684043  0.17727670     0.13300
H1109       H  0.52538076  0.84996992  0.10841248     0.13100
H1110       H  0.48316841  0.85020200  0.10796991     0.12200
C1111       C  0.64735202  0.97835478  0.13896605     0.18500
C1112       C  0.62995745  0.98999319  0.15073533    -0.10600
C1113       C  0.62929033  0.01398146  0.15066768    -0.11500
C1114       C  0.64600986  0.02650012  0.13882497     0.20100
C1115       C  0.66321942  0.01486026  0.12676683    -0.13500
C1116       C  0.66388747  0.99086126  0.12683535    -0.11800
C1117       C  0.64610094  0.05121782  0.13989711     0.01000
C1118       C  0.64697520  0.07183381  0.14164894    -0.31800
C1119       C  0.64868124  0.95367637  0.14004965     0.02400
C1120       C  0.65020507  0.93309432  0.14169129    -0.33500
H1121       H  0.61711375  0.98053951  0.16022354     0.13500
H1122       H  0.61594850  0.02276180  0.16012468     0.13300
H1123       H  0.67629483  0.02432729  0.11761335     0.13100
H1124       H  0.67746190  0.98208267  0.11771394     0.12200
C1125       C  0.63241013  0.73299339  0.26204957     0.18500
C1126       C  0.62979249  0.75611125  0.26799977    -0.10600
C1127       C  0.62980320  0.77298055  0.25098228    -0.11500
C1128       C  0.63242231  0.76682920  0.22791157     0.20100
C1129       C  0.63503612  0.74369602  0.22193948    -0.13500
C1130       C  0.63502615  0.72681114  0.23897333    -0.11800
C1131       C  0.63269580  0.78429610  0.21046806     0.01000
C1132       C  0.63336955  0.79908157  0.19603495    -0.31800
C1133       C  0.63276730  0.71572473  0.27966919     0.02400
C1134       C  0.63354932  0.70143580  0.29457476    -0.33500
H1135       H  0.62783152  0.76109556  0.28578663     0.13500
H1136       H  0.62784306  0.79080440  0.25581135     0.13300
H1137       H  0.63714783  0.73873579  0.20416172     0.13100
H1138       H  0.63713752  0.70899375  0.23417644     0.12200
C1139       C  0.86042586  0.47839782  0.14365704     0.18500
C1140       C  0.86900721  0.49046999  0.12475995    -0.10600
C1141       C  0.86875356  0.51446613  0.12469250    -0.11500
C1142       C  0.85991841  0.52648275  0.14352373     0.20100
C1143       C  0.85143418  0.51439737  0.16245429    -0.13500
C1144       C  0.85168821  0.49042736  0.16252193    -0.11800
C1145       C  0.85932178  0.55116851  0.14346261     0.01000
C1146       C  0.85819231  0.57179923  0.14430064    -0.31800
C1147       C  0.86012596  0.45370874  0.14358604     0.02400
C1148       C  0.85900462  0.43306925  0.14412033    -0.33500
H1149       H  0.87575909  0.48135031  0.11006706     0.13500
H1150       H  0.87534031  0.52362606  0.10995324     0.13300
H1151       H  0.84454230  0.52349836  0.17710020     0.13100
H1152       H  0.84496236  0.48128139  0.17721262     0.12200
C1153       C  0.02713658  0.64409870  0.13929522     0.18500
C1154       C  0.01520239  0.64788244  0.11875664    -0.10600
C1155       C  0.99117381  0.64850591  0.11865511    -0.11500
C1156       C  0.97890736  0.64535306  0.13908701     0.20100
C1157       C  0.99086222  0.64138031  0.15955422    -0.13500
C1158       C  0.01484516  0.64075476  0.15965471    -0.11800
C1159       C  0.95414749  0.64666075  0.13930012     0.01000
C1160       C  0.93350448  0.64814951  0.14056369    -0.31800
C1161       C  0.05191944  0.64446895  0.13978383     0.02400
C1162       C  0.07256751  0.64568967  0.14122655    -0.33500
H1163       H  0.02445352  0.65058393  0.10290169     0.13500
H1164       H  0.98218777  0.65164496  0.10270850     0.13300
H1165       H  0.98164738  0.63896977  0.17547994     0.13100
H1166       H  0.02381259  0.63790521  0.17567007     0.12200
C1167       C  0.76938879  0.62968991  0.23128970     0.18500
C1168       C  0.77565158  0.62307366  0.25351730    -0.10600
C1169       C  0.75943000  0.62323184  0.27118356    -0.11500
C1170       C  0.73683385  0.63000882  0.26673129     0.20100
C1171       C  0.73049950  0.63638471  0.24444816    -0.13500
C1172       C  0.74672309  0.63622720  0.22677978    -0.11800
C1173       C  0.72027757  0.63083164  0.28506193     0.01000
C1174       C  0.70621621  0.63198122  0.30019077    -0.31800
C1175       C  0.78633933  0.63041996  0.21330785     0.02400
C1176       C  0.80063496  0.63170699  0.19840235    -0.33500
H1177       H  0.79312481  0.61801517  0.25724107     0.13500
H1178       H  0.76454277  0.61827633  0.28831862     0.13300
H1179       H  0.71308065  0.64166963  0.24077806     0.13100
H1180       H  0.74166470  0.64141005  0.20969509     0.12200
C1181       C  0.73693815  0.77050834  0.12378244     0.18500
C1182       C  0.75980686  0.77672983  0.12758179    -0.10600
C1183       C  0.77692353  0.75999226  0.12770245    -0.11500
C1184       C  0.77126031  0.73694688  0.12403543     0.20100
C1185       C  0.74840915  0.73072793  0.11999911    -0.13500
C1186       C  0.73127044  0.74748729  0.11987924    -0.11800
C1187       C  0.78880837  0.71967023  0.12514039     0.01000
C1188       C  0.80352051  0.70527453  0.12679643    -0.31800
C1189       C  0.71933594  0.78773408  0.12448289     0.02400
C1190       C  0.70500800  0.80253522  0.12579188    -0.33500
H1191       H  0.76436063  0.79446574  0.13066797     0.13500
H1192       H  0.79452762  0.76498471  0.13089695     0.13300
H1193       H  0.74383497  0.71295197  0.11719855     0.13100
H1194       H  0.71362069  0.74248262  0.11697182     0.12200
C1195       C  0.02698973  0.85936484  0.35190366     0.18500
C1196       C  0.01473231  0.85884713  0.37254162    -0.10600
C1197       C  0.99075690  0.85912337  0.37228803    -0.11500
C1198       C  0.97891877  0.85992435  0.35139640     0.20100
C1199       C  0.99117974  0.86046195  0.33075744    -0.13500
C1200       C  0.01514566  0.86018679  0.33101083    -0.11800
C1201       C  0.95423478  0.85971333  0.35109835     0.01000
C1202       C  0.93359424  0.85880919  0.35043759    -0.31800
C1203       C  0.05166681  0.85860989  0.35206486     0.02400
C1204       C  0.07228999  0.85737207  0.35139652    -0.33500
H1205       H  0.02369341  0.85811577  0.38879608     0.13500
H1206       H  0.98146578  0.85859778  0.38834138     0.13300
H1207       H  0.98222119  0.86097736  0.31448848     0.13100
H1208       H  0.02442764  0.86049763  0.31494227     0.12200
C1209       C  0.86133922  0.02708628  0.35370054     0.18500
C1210       C  0.85382063  0.01571342  0.37347526    -0.10600
C1211       C  0.85395567  0.99172591  0.37438479    -0.11500
C1212       C  0.86161511  0.97895969  0.35552611     0.20100
C1213       C  0.86942257  0.99034095  0.33586533    -0.13500
C1214       C  0.86928480  0.01432231  0.33495479    -0.11800
C1215       C  0.86049359  0.95424969  0.35587751     0.01000
C1216       C  0.85868142  0.93363832  0.35506400    -0.31800
C1217       C  0.86023467  0.05176489  0.35237641     0.02400
C1218       C  0.85869947  0.07235828  0.35087748    -0.33500
H1219       H  0.84758648  0.02537070  0.38805643     0.13500
H1220       H  0.84778728  0.98314411  0.38964613     0.13300
H1221       H  0.87529614  0.98068005  0.32113504     0.13100
H1222       H  0.87509021  0.02289096  0.31954300     0.12200
C1223       C  0.73420023  0.73788023  0.37215420     0.18500
C1224       C  0.72794912  0.76099949  0.37402595    -0.10600
C1225       C  0.74475607  0.77812082  0.37357401    -0.11500
C1226       C  0.76790768  0.77220646  0.37125112     0.20100
C1227       C  0.77415868  0.74908508  0.36948147    -0.13500
C1228       C  0.75735762  0.73196977  0.36993302    -0.11800
C1229       C  0.78521267  0.78982048  0.37034242     0.01000
C1230       C  0.79981777  0.80442249  0.36914104    -0.31800
C1231       C  0.71684609  0.72029247  0.37179222     0.02400
C1232       C  0.70226076  0.70566732  0.37057893    -0.33500
H1233       H  0.71008797  0.76579204  0.37565222     0.13500
H1234       H  0.73970473  0.79593035  0.37489414     0.13300
H1235       H  0.79199730  0.74430051  0.36761564     0.13100
H1236       H  0.76239457  0.71417694  0.36837311     0.12200
C1237       C  0.73545818  0.87543239  0.23231322     0.18500
C1238       C  0.75636500  0.88639515  0.22793807    -0.10600
C1239       C  0.77347110  0.88676291  0.24473177    -0.11500
C1240       C  0.76972849  0.87617909  0.26594684     0.20100
C1241       C  0.74875668  0.86537089  0.27037903    -0.13500
C1242       C  0.73165746  0.86500385  0.25359272    -0.11800
C1243       C  0.78759821  0.87582340  0.28292142     0.01000
C1244       C  0.80266680  0.87474812  0.29700144    -0.31800
C1245       C  0.71808430  0.87444378  0.21484956     0.02400
C1246       C  0.70349670  0.87302364  0.20029349    -0.33500
H1247       H  0.75949139  0.89446565  0.21153075     0.13500
H1248       H  0.78966547  0.89511004  0.24110896     0.13300
H1249       H  0.74571740  0.85707829  0.28669315     0.13100
H1250       H  0.71555945  0.85643524  0.25713171     0.12200
C1251       C  0.87762530  0.76771854  0.26680857     0.18500
C1252       C  0.88785633  0.77195085  0.24547818    -0.10600
C1253       C  0.88813877  0.75482135  0.22861999    -0.11500
C1254       C  0.87819725  0.73338162  0.23301206     0.20100
C1255       C  0.86831212  0.72906365  0.25445828    -0.13500
C1256       C  0.86803053  0.74616251  0.27128718    -0.11800
C1257       C  0.87732401  0.71607496  0.21534846     0.01000
C1258       C  0.87558002  0.70152589  0.20070931    -0.31800
C1259       C  0.87627748  0.78557754  0.28389616     0.02400
C1260       C  0.87431579  0.80024643  0.29839501    -0.33500
H1261       H  0.89532644  0.78854371  0.24178521     0.13500
H1262       H  0.89580867  0.75838846  0.21209662     0.13300
H1263       H  0.86054175  0.71258792  0.25805955     0.13100
H1264       H  0.86006008  0.74267312  0.28768412     0.12200
C1265       C  0.14622508  0.36046107  0.97222769     0.18500
C1266       C  0.12715208  0.35207800  0.98415710    -0.10600
C1267       C  0.12706417  0.35195167  0.00815085    -0.11500
C1268       C  0.14604868  0.36021416  0.02034580     0.20100
C1269       C  0.16503035  0.36880872  0.00841545    -0.13500
C1270       C  0.16511873  0.36893383  0.98442525    -0.11800
C1271       C  0.14639669  0.35918807  0.04503247     0.01000
C1272       C  0.14738275  0.35765727  0.06564060    -0.31800
C1273       C  0.14676293  0.35959546  0.94753738     0.02400
C1274       C  0.14778874  0.35806087  0.92692998    -0.33500
H1275       H  0.11248491  0.34539909  0.97492120     0.13500
H1276       H  0.11232767  0.34518429  0.01717532     0.13300
H1277       H  0.17984434  0.37516136  0.01764674     0.13100
H1278       H  0.18000270  0.37537372  0.97540266     0.12200
C1279       C  0.36050499  0.14619556  0.02099275     0.18500
C1280       C  0.34603112  0.13110567  0.00911717    -0.10600
C1281       C  0.34585356  0.13093262  0.98511472    -0.11500
C1282       C  0.36014754  0.14584962  0.97286516     0.20100
C1283       C  0.37474634  0.16079332  0.98475022    -0.13500
C1284       C  0.37492303  0.16096686  0.00873585    -0.11800
C1285       C  0.35928179  0.14644864  0.94816965     0.01000
C1286       C  0.35802614  0.14786253  0.92756337    -0.31800
C1287       C  0.35998461  0.14712556  0.04568622     0.02400
C1288       C  0.35881210  0.14864067  0.06628980    -0.33500
H1289       H  0.33472354  0.11968329  0.01839489     0.13500
H1290       H  0.33440890  0.11937571  0.97612862     0.13300
H1291       H  0.38579064  0.17248028  0.97548254     0.13100
H1292       H  0.38610320  0.17278858  0.01771349     0.12200
C1293       C  0.23595992  0.27037927  0.86808823     0.18500
C1294       C  0.24830059  0.26564442  0.88815650    -0.10600
C1295       C  0.26439237  0.24785478  0.88843942    -0.11500
C1296       C  0.26819314  0.23473190  0.86866300     0.20100
C1297       C  0.25581680  0.23946032  0.84863615    -0.13500
C1298       C  0.23975256  0.25722316  0.84835295    -0.11800
C1299       C  0.28498612  0.21664775  0.86867791     0.01000
C1300       C  0.29921796  0.20169066  0.86777556    -0.31800
C1301       C  0.21937880  0.28865424  0.86763449     0.02400
C1302       C  0.20526091  0.30370691  0.86653428    -0.33500
H1303       H  0.24551083  0.27569475  0.90351727     0.13500
H1304       H  0.27389621  0.24438463  0.90401895     0.13300
H1305       H  0.25863715  0.22946892  0.83324029     0.13100
H1306       H  0.23031269  0.26071848  0.83273765     0.12200
C1307       C  0.35958988  0.36089412  0.52094949     0.18500
C1308       C  0.34168968  0.37139947  0.50887614    -0.10600
C1309       C  0.34185305  0.37166551  0.48489017    -0.11500
C1310       C  0.35991901  0.36142592  0.47284035     0.20100
C1311       C  0.37792990  0.35111481  0.48491506    -0.13500
C1312       C  0.37776579  0.35084742  0.50890671    -0.11800
C1313       C  0.35947893  0.36065364  0.44814698     0.01000
C1314       C  0.35835941  0.35908632  0.42754639    -0.31800
C1315       C  0.35890900  0.35982240  0.54562239     0.02400
C1316       C  0.35756770  0.35840880  0.56621497    -0.33500
H1317       H  0.32750054  0.37914361  0.51799053     0.13500
H1318       H  0.32777343  0.37958870  0.47575201     0.13300
H1319       H  0.39192967  0.34304411  0.47579172     0.13100
H1320       H  0.39165475  0.34259627  0.51804456     0.12200
C1321       C  0.37332192  0.27287520  0.73274851     0.18500
C1322       C  0.39186619  0.27098917  0.74789906    -0.10600
C1323       C  0.39191536  0.25395408  0.76478050    -0.11500
C1324       C  0.37342354  0.23873061  0.76658641     0.20100
C1325       C  0.35486068  0.24066084  0.75146749    -0.13500
C1326       C  0.35481151  0.25768440  0.73459770    -0.11800
C1327       C  0.37337863  0.22121107  0.78397638     0.01000
C1328       C  0.37272115  0.20652987  0.79851267    -0.31800
C1329       C  0.37321183  0.29035788  0.71532452     0.02400
C1330       C  0.37253239  0.30487334  0.70062578    -0.33500
H1331       H  0.40625262  0.28265621  0.74665543     0.13500
H1332       H  0.40634125  0.25265552  0.77640355     0.13300
H1333       H  0.34045015  0.22902331  0.75272436     0.13100
H1334       H  0.34036177  0.25899682  0.72300352     0.12200
C1335       C  0.23315782  0.37614100  0.76093049     0.18500
C1336       C  0.22905136  0.38629930  0.73956393    -0.10600
C1337       C  0.24615240  0.38628841  0.72276297    -0.11500
C1338       C  0.26742928  0.37612487  0.72727070     0.20100
C1339       C  0.27157369  0.36610638  0.74868874    -0.13500
C1340       C  0.25448633  0.36611857  0.76547740    -0.11800
C1341       C  0.28483682  0.37553880  0.70980899     0.01000
C1342       C  0.29939999  0.37440483  0.69520352    -0.31800
C1343       C  0.21541494  0.37551978  0.77805024     0.02400
C1344       C  0.20079880  0.37426106  0.79259277    -0.33500
H1345       H  0.21260105  0.39406419  0.73584136     0.13500
H1346       H  0.24274650  0.39403443  0.70625197     0.13300
H1347       H  0.28794657  0.35814795  0.75234905     0.13100
H1348       H  0.25783221  0.35818074  0.78190995     0.12200
C1349       C  0.14435490  0.14475928  0.47302442     0.18500
C1350       C  0.15455792  0.12653821  0.48490555    -0.10600
C1351       C  0.15469323  0.12635475  0.50892374    -0.11500
C1352       C  0.14463837  0.14439070  0.52121562     0.20100
C1353       C  0.13416310  0.16243971  0.50932878    -0.13500
C1354       C  0.13402718  0.16262287  0.48532800    -0.11800
C1355       C  0.14588885  0.14491840  0.54593377     0.01000
C1356       C  0.14763986  0.14624181  0.56653420    -0.31800
C1357       C  0.14523489  0.14562303  0.44829626     0.02400
C1358       C  0.14672280  0.14709368  0.42768534    -0.33500
H1359       H  0.16267079  0.11266226  0.47562135     0.13500
H1360       H  0.16291905  0.11233557  0.51789275     0.13300
H1361       H  0.12640270  0.17652280  0.51860326     0.13100
H1362       H  0.12615267  0.17685000  0.47637225     0.12200
C1363       C  0.12852243  0.26852967  0.76551863     0.18500
C1364       C  0.13511154  0.24613010  0.77109043    -0.10600
C1365       C  0.13516278  0.22905083  0.75425547    -0.11500
C1366       C  0.12863188  0.23426968  0.73174794     0.20100
C1367       C  0.12187279  0.25663874  0.72618882    -0.13500
C1368       C  0.12182145  0.27373777  0.74304343    -0.11800
C1369       C  0.12946467  0.21679172  0.71431275     0.01000
C1370       C  0.13089978  0.20208173  0.69983997    -0.31800
C1371       C  0.12917683  0.28618651  0.78277755     0.02400
C1372       C  0.13047637  0.30073879  0.79742149    -0.33500
H1373       H  0.14038137  0.24192094  0.78838717     0.13500
H1374       H  0.14047962  0.21183647  0.75873918     0.13300
H1375       H  0.11684619  0.26088720  0.70882936     0.13100
H1376       H  0.11674788  0.29101666  0.73852249     0.12200
C1377       C  0.27156729  0.12857446  0.76179360     0.18500
C1378       C  0.24952107  0.13635255  0.76722703    -0.10600
C1379       C  0.23229495  0.13632800  0.75054489    -0.11500
C1380       C  0.23699478  0.12851776  0.72832319     0.20100
C1381       C  0.25898309  0.12050861  0.72293247    -0.13500
C1382       C  0.27622807  0.12053469  0.73963203    -0.11800
C1383       C  0.21944270  0.12936459  0.71094857     0.01000
C1384       C  0.20479845  0.13084874  0.69641000    -0.31800
C1385       C  0.28945802  0.12950478  0.77881524     0.02400
C1386       C  0.30413460  0.13113656  0.79330907    -0.33500
H1387       H  0.24572397  0.14265122  0.78426969     0.13500
H1388       H  0.21538113  0.14261831  0.75491063     0.13300
H1389       H  0.26284006  0.11448339  0.70580522     0.13100
H1390       H  0.29322532  0.11451967  0.73520407     0.12200
C1391       C  0.23490118  0.23629627  0.62451678     0.18500
C1392       C  0.25613242  0.23117728  0.63448241    -0.10600
C1393       C  0.27367890  0.24751538  0.63454653    -0.11500
C1394       C  0.27012793  0.26908500  0.62463748     0.20100
C1395       C  0.24891828  0.27420592  0.61457342    -0.13500
C1396       C  0.23134420  0.25784317  0.61451066    -0.11800
C1397       C  0.28813879  0.28600382  0.62517093     0.01000
C1398       C  0.30322391  0.30013110  0.62621579    -0.31800
C1399       C  0.21675207  0.21953118  0.62500877     0.02400
C1400       C  0.20186300  0.20521683  0.62621396    -0.33500
H1401       H  0.25907055  0.21461628  0.64231280     0.13500
H1402       H  0.28997375  0.24336894  0.64243056     0.13300
H1403       H  0.24594415  0.29083775  0.60690861     0.13100
H1404       H  0.21497984  0.26202952  0.60679431     0.12200
C1405       C  0.35932250  0.47897934  0.63936524     0.18500
C1406       C  0.37576993  0.49148887  0.65163637    -0.10600
C1407       C  0.37525461  0.51547689  0.65150047    -0.11500
C1408       C  0.35828537  0.52708510  0.63908868     0.20100
C1409       C  0.34187350  0.51457230  0.62677627    -0.13500
C1410       C  0.34238889  0.49058935  0.62691211    -0.11800
C1411       C  0.35734167  0.55177491  0.63948793     0.01000
C1412       C  0.35606604  0.57239536  0.64058842    -0.31800
C1413       C  0.35933872  0.45428413  0.64014530     0.02400
C1414       C  0.35848402  0.43366057  0.64150423    -0.33500
H1415       H  0.38886080  0.48270809  0.66144706     0.13500
H1416       H  0.38795359  0.52495265  0.66118982     0.13300
H1417       H  0.32859049  0.52334634  0.61722211     0.13100
H1418       H  0.32949828  0.48111377  0.61747962     0.12200
C1419       C  0.36180891  0.64693080  0.52157235     0.18500
C1420       C  0.37891442  0.65881266  0.50960924    -0.10600
C1421       C  0.37917776  0.65860465  0.48560276    -0.11500
C1422       C  0.36234342  0.64650666  0.47342537     0.20100
C1423       C  0.34537261  0.63445969  0.48540293    -0.13500
C1424       C  0.34510895  0.63466849  0.50939241    -0.11800
C1425       C  0.36189516  0.64715534  0.44870489     0.01000
C1426       C  0.36052700  0.64839729  0.42808490    -0.31800
C1427       C  0.36088289  0.64795200  0.54626207     0.02400
C1428       C  0.35933392  0.64939346  0.56685276    -0.33500
H1429       H  0.39186021  0.66843624  0.51881830     0.13500
H1430       H  0.39232357  0.66808481  0.47655119     0.13300
H1431       H  0.33219889  0.62514317  0.47620145     0.13100
H1432       H  0.33173603  0.62549712  0.51843011     0.12200
C1433       C  0.14802380  0.47907790  0.85400798     0.18500
C1434       C  0.13905217  0.49117568  0.87272359    -0.10600
C1435       C  0.13902311  0.51517708  0.87263781    -0.11500
C1436       C  0.14795845  0.52714464  0.85383248     0.20100
C1437       C  0.15696736  0.51501976  0.83516506    -0.13500
C1438       C  0.15699477  0.49106260  0.83525029    -0.11800
C1439       C  0.14796103  0.55182722  0.85353963     0.01000
C1440       C  0.14860775  0.57245140  0.85226874    -0.31800
C1441       C  0.14822786  0.45440524  0.85395019     0.02400
C1442       C  0.14916558  0.43378989  0.85284629    -0.33500
H1443       H  0.13211122  0.48207899  0.88733551     0.13500
H1444       H  0.13204793  0.52437622  0.88717971     0.13300
H1445       H  0.16395469  0.52408600  0.82055005     0.13100
H1446       H  0.16401374  0.48188747  0.82070643     0.12200
C1447       C  0.14534590  0.64548306  0.02061679     0.18500
C1448       C  0.16408333  0.63616876  0.00887481    -0.10600
C1449       C  0.16441433  0.63604444  0.98491309    -0.11500
C1450       C  0.14600278  0.64523592  0.97256284     0.20100
C1451       C  0.12716716  0.65440138  0.98429123    -0.13500
C1452       C  0.12683658  0.65452753  0.00828004    -0.11800
C1453       C  0.14685756  0.64594754  0.94791516     0.01000
C1454       C  0.14834792  0.64724470  0.92734506    -0.31800
C1455       C  0.14559754  0.64648939  0.04526845     0.02400
C1456       C  0.14687126  0.64800163  0.06584196    -0.33500
H1457       H  0.17854146  0.62924325  0.01824150     0.13500
H1458       H  0.17911174  0.62902225  0.97602942     0.13300
H1459       H  0.11288529  0.66165887  0.97490966     0.13100
H1460       H  0.11231649  0.66188276  0.01718140     0.12200
C1461       C  0.23725940  0.63217816  0.76550195     0.18500
C1462       C  0.23103853  0.63253221  0.74230435    -0.10600
C1463       C  0.24795844  0.63261781  0.72534166    -0.11500
C1464       C  0.27115239  0.63234390  0.73153511     0.20100
C1465       C  0.27736065  0.63202441  0.75472610    -0.13500
C1466       C  0.26045117  0.63193827  0.77167867    -0.11800
C1467       C  0.28859121  0.63259008  0.71414698     0.01000
C1468       C  0.30335392  0.63318543  0.69974250    -0.31800
C1469       C  0.21990631  0.63241631  0.78298470     0.02400
C1470       C  0.20550603  0.63316213  0.79775216    -0.33500
H1471       H  0.21314051  0.63280611  0.73734583     0.13500
H1472       H  0.24298381  0.63294083  0.70746193     0.13300
H1473       H  0.29525880  0.63188637  0.75969479     0.13100
H1474       H  0.26543884  0.63175027  0.78955706     0.12200
C1475       C  0.35817338  0.97919846  0.85467909     0.18500
C1476       C  0.33915496  0.99122533  0.84634064    -0.10600
C1477       C  0.33932849  0.01517794  0.84592913    -0.11500
C1478       C  0.35851936  0.02725260  0.85384898     0.20100
C1479       C  0.37762087  0.01524545  0.86205805    -0.13500
C1480       C  0.37744751  0.99124968  0.86246854    -0.11800
C1481       C  0.35845551  0.05192531  0.85349152     0.01000
C1482       C  0.35734600  0.07253898  0.85252926    -0.31800
C1483       C  0.35783724  0.95452503  0.85495602     0.02400
C1484       C  0.35664424  0.93390378  0.85417870    -0.33500
H1485       H  0.32420742  0.98209043  0.84017872     0.13500
H1486       H  0.32449155  0.02428093  0.83947337     0.13300
H1487       H  0.39257559  0.02440775  0.86815053     0.13100
H1488       H  0.39229425  0.98211676  0.86885528     0.12200
C1489       C  0.36267204  0.85918628  0.97349147     0.18500
C1490       C  0.34683572  0.87258920  0.98558868    -0.10600
C1491       C  0.34701828  0.87280655  0.00958820    -0.11500
C1492       C  0.36303855  0.85961980  0.02167497     0.20100
C1493       C  0.37905430  0.84641278  0.00958247    -0.13500
C1494       C  0.37887136  0.84619494  0.98556718    -0.11800
C1495       C  0.36240303  0.85893409  0.04640877     0.01000
C1496       C  0.36100507  0.85763659  0.06703300    -0.31800
C1497       C  0.36176183  0.85821104  0.94877341     0.02400
C1498       C  0.36017152  0.85694158  0.92815705    -0.33500
H1499       H  0.33417590  0.88264656  0.97647794     0.13500
H1500       H  0.33448678  0.88301323  0.01871083     0.13300
H1501       H  0.39147081  0.83606746  0.01870738     0.13100
H1502       H  0.39115909  0.83569975  0.97643761     0.12200
C1503       C  0.37512341  0.73582327  0.73068902     0.18500
C1504       C  0.36315027  0.75637723  0.72749397    -0.10600
C1505       C  0.36311654  0.77310084  0.74468233    -0.11500
C1506       C  0.37505621  0.76937640  0.76518094     0.20100
C1507       C  0.38700211  0.74879578  0.76842739    -0.13500
C1508       C  0.38703635  0.73204854  0.75121427    -0.11800
C1509       C  0.37474243  0.78658146  0.78291029     0.01000
C1510       C  0.37373260  0.80109043  0.79762411    -0.31800
C1511       C  0.37495737  0.71863260  0.71293946     0.02400
C1512       C  0.37409865  0.70451005  0.69783960    -0.33500
H1513       H  0.35381814  0.75945680  0.71173268     0.13500
H1514       H  0.35375355  0.78890036  0.74201198     0.13300
H1515       H  0.39622728  0.74568990  0.78424332     0.13100
H1516       H  0.39629389  0.71619331  0.75391041     0.12200
C1517       C  0.26792747  0.77225791  0.87145553     0.18500
C1518       C  0.24490732  0.77875015  0.87357866    -0.10600
C1519       C  0.22762649  0.76209880  0.87332707    -0.11500
C1520       C  0.23327212  0.73887266  0.87094783     0.20100
C1521       C  0.25630900  0.73236429  0.86914972    -0.13500
C1522       C  0.27358235  0.74900837  0.86940036    -0.11800
C1523       C  0.21547580  0.72176982  0.86969022     0.01000
C1524       C  0.20084588  0.70722917  0.86804159    -0.31800
C1525       C  0.28565153  0.78945987  0.87060014     0.02400
C1526       C  0.30037369  0.80392099  0.86911001    -0.33500
H1527       H  0.24031609  0.79666434  0.87513773     0.13500
H1528       H  0.20987399  0.76735058  0.87471067     0.13300
H1529       H  0.26088713  0.71447658  0.86728103     0.13100
H1530       H  0.29131151  0.74377317  0.86770603     0.12200
C1531       C  0.14549565  0.86160345  0.47238361     0.18500
C1532       C  0.16438389  0.87000893  0.48465376    -0.10600
C1533       C  0.16412536  0.87017334  0.50866354    -0.11500
C1534       C  0.14497050  0.86194171  0.52059476     0.20100
C1535       C  0.12595286  0.85383815  0.50832242    -0.13500
C1536       C  0.12621179  0.85367358  0.48430448    -0.11800
C1537       C  0.14525241  0.86092744  0.54534510     0.01000
C1538       C  0.14630494  0.85921049  0.56597328    -0.31800
C1539       C  0.14628068  0.86034277  0.44765922     0.02400
C1540       C  0.14769700  0.85867247  0.42705119    -0.33500
H1541       H  0.17942780  0.87613306  0.47567218     0.13500
H1542       H  0.17897437  0.87640764  0.51791348     0.13300
H1543       H  0.11106881  0.84735003  0.51731196     0.13100
H1544       H  0.11152356  0.84707530  0.47505050     0.12200
C1545       C  0.14303104  0.02680320  0.64068343     0.18500
C1546       C  0.13150906  0.01440165  0.65772089    -0.10600
C1547       C  0.13195789  0.99040571  0.65755293    -0.11500
C1548       C  0.14393401  0.97866551  0.64035127     0.20100
C1549       C  0.15521659  0.99106233  0.62315890    -0.13500
C1550       C  0.15476801  0.01505467  0.62332677    -0.11800
C1551       C  0.14538616  0.95398838  0.64084132     0.01000
C1552       C  0.14734375  0.93341271  0.64189643    -0.31800
C1553       C  0.14361307  0.05151408  0.64154384     0.02400
C1554       C  0.14503167  0.07212591  0.64288752    -0.33500
H1555       H  0.12245953  0.02327104  0.67128608     0.13500
H1556       H  0.12323896  0.98102631  0.67099229     0.13300
H1557       H  0.16460442  0.98219790  0.60982264     0.13100
H1558       H  0.16382647  0.02443594  0.61011548     0.12200
C1559       C  0.26896527  0.73567055  0.62664343     0.18500
C1560       C  0.24717281  0.73138835  0.61747862    -0.10600
C1561       C  0.23067705  0.74879332  0.61707611    -0.11500
C1562       C  0.23588937  0.77056705  0.62583017     0.20100
C1563       C  0.25764364  0.77480076  0.63509710    -0.13500
C1564       C  0.27412922  0.75740608  0.63549951    -0.11800
C1565       C  0.21892401  0.78851419  0.62551441     0.01000
C1566       C  0.20480480  0.80361769  0.62586217    -0.31800
C1567       C  0.28600553  0.71780518  0.62703056     0.02400
C1568       C  0.30037902  0.70296254  0.62771722    -0.33500
H1569       H  0.24295525  0.71464070  0.61064862     0.13500
H1570       H  0.21388719  0.74527938  0.60994719     0.13300
H1571       H  0.26184964  0.79152370  0.64199578     0.13100
H1572       H  0.29089425  0.76090749  0.64269649     0.12200
C1573       C  0.13064325  0.73244781  0.76064241     0.18500
C1574       C  0.15133009  0.73840902  0.75001384    -0.10600
C1575       C  0.15169552  0.75518674  0.73288753    -0.11500
C1576       C  0.13136860  0.76611792  0.72627157     0.20100
C1577       C  0.11066139  0.76010115  0.73683765    -0.13500
C1578       C  0.11029594  0.74331160  0.75397660    -0.11800
C1579       C  0.13184152  0.78365848  0.70886306     0.01000
C1580       C  0.13265549  0.79849820  0.69446796    -0.31800
C1581       C  0.13043050  0.71531083  0.77844399     0.02400
C1582       C  0.13116388  0.70095336  0.79331662    -0.33500
H1583       H  0.16717734  0.73014116  0.75501594     0.13500
H1584       H  0.16781459  0.75968836  0.72487572     0.13300
H1585       H  0.09483563  0.76843862  0.73189041     0.13100
H1586       H  0.09419895  0.73886324  0.76206041     0.12200
C1587       C  0.27024417  0.87672514  0.76380525     0.18500
C1588       C  0.24916647  0.88731975  0.76827864    -0.10600
C1589       C  0.23180185  0.88701731  0.75170771    -0.11500
C1590       C  0.23542679  0.87611962  0.73059397     0.20100
C1591       C  0.25658698  0.86573515  0.72605468    -0.13500
C1592       C  0.27393520  0.86603833  0.74260948    -0.11800
C1593       C  0.21735236  0.87511797  0.71376164     0.01000
C1594       C  0.20238062  0.87365554  0.69954734    -0.31800
C1595       C  0.28785410  0.87619366  0.78112606     0.02400
C1596       C  0.30264373  0.87486086  0.79552551    -0.33500
H1597       H  0.24609336  0.89559001  0.78460972     0.13500
H1598       H  0.21550137  0.89508784  0.75543406     0.13300
H1599       H  0.25959027  0.85723830  0.70982518     0.13100
H1600       H  0.29014349  0.85774315  0.73896703     0.12200
C1601       C  0.52662378  0.35858370  0.63993064     0.18500
C1602       C  0.51460697  0.35879188  0.66071853    -0.10600
C1603       C  0.49064270  0.35911535  0.66076602    -0.11500
C1604       C  0.47851114  0.35923104  0.64002755     0.20100
C1605       C  0.49051740  0.35920439  0.61921801    -0.13500
C1606       C  0.51451505  0.35888112  0.61917073    -0.11800
C1607       C  0.45380047  0.35868477  0.64022046     0.01000
C1608       C  0.43317454  0.35742191  0.64124468    -0.31800
C1609       C  0.55130967  0.35751329  0.64003650     0.02400
C1610       C  0.57191260  0.35599564  0.64105002    -0.33500
H1611       H  0.52375662  0.35850289  0.67687747     0.13500
H1612       H  0.48157398  0.35905782  0.67696863     0.13300
H1613       H  0.48134638  0.35921864  0.60307409     0.13100
H1614       H  0.52360239  0.35866387  0.60298393     0.12200
C1615       C  0.64538470  0.36114123  0.47303106     0.18500
C1616       C  0.66622280  0.35973594  0.48488068    -0.10600
C1617       C  0.66651219  0.36001617  0.50884807    -0.11500
C1618       C  0.64596982  0.36170923  0.52113611     0.20100
C1619       C  0.62512450  0.36334852  0.50930217    -0.13500
C1620       C  0.62483480  0.36306861  0.48529423    -0.11800
C1621       C  0.64637061  0.36097402  0.54582935     0.01000
C1622       C  0.64765555  0.35939066  0.56641560    -0.31800
C1623       C  0.64520103  0.35991907  0.44835655     0.02400
C1624       C  0.64618254  0.35811873  0.42777272    -0.33500
H1625       H  0.68221103  0.35817656  0.47559956     0.13500
H1626       H  0.68272663  0.35865733  0.51779672     0.13300
H1627       H  0.60912698  0.36458674  0.51861247     0.13100
H1628       H  0.60861142  0.36410624  0.47632045     0.12200
C1629       C  0.47821442  0.14605333  0.85539045     0.18500
C1630       C  0.49038700  0.12548494  0.85297859    -0.10600
C1631       C  0.51438544  0.12564024  0.85295837    -0.11500
C1632       C  0.52634038  0.14635916  0.85535527     0.20100
C1633       C  0.51415162  0.16688078  0.85801461    -0.13500
C1634       C  0.49017945  0.16672497  0.85803812    -0.11800
C1635       C  0.55104535  0.14671809  0.85447440     0.01000
C1636       C  0.57167124  0.14770808  0.85313018    -0.31800
C1637       C  0.45352362  0.14618038  0.85427910     0.02400
C1638       C  0.43294146  0.14726810  0.85249349    -0.33500
H1639       H  0.48134772  0.10940150  0.85084123     0.13500
H1640       H  0.52359931  0.10966746  0.85083189     0.13300
H1641       H  0.52317204  0.18301788  0.85982216     0.13100
H1642       H  0.48097875  0.18274977  0.85983782     0.12200
C1643       C  0.64403686  0.14152521  0.02113522     0.18500
C1644       C  0.62369428  0.14528074  0.00889169    -0.10600
C1645       C  0.62377244  0.14470535  0.98486262    -0.11500
C1646       C  0.64418937  0.14037357  0.97296452     0.20100
C1647       C  0.66439226  0.13617867  0.98524085    -0.13500
C1648       C  0.66431514  0.13675540  0.00921557    -0.11800
C1649       C  0.64484563  0.14140884  0.94824827     0.01000
C1650       C  0.64662305  0.14330425  0.92770311    -0.31800
C1651       C  0.64447329  0.14338698  0.04582074     0.02400
C1652       C  0.64609533  0.14548981  0.06637166    -0.33500
H1653       H  0.60790599  0.14901547  0.01788222     0.13500
H1654       H  0.60804122  0.14804163  0.97558197     0.13300
H1655       H  0.68029395  0.13288170  0.97627182     0.13100
H1656       H  0.68016266  0.13385763  0.01845187     0.12200
C1657       C  0.62994685  0.26820899  0.72976288     0.18500
C1658       C  0.61455395  0.26922832  0.74817315    -0.10600
C1659       C  0.61448373  0.25191707  0.76479554    -0.11500
C1660       C  0.62980675  0.23349966  0.76308261     0.20100
C1661       C  0.64503988  0.23239382  0.74456289    -0.13500
C1662       C  0.64511037  0.24968397  0.72796106    -0.11800
C1663       C  0.63030688  0.21597121  0.78049060     0.01000
C1664       C  0.63153008  0.20124951  0.79496969    -0.31800
C1665       C  0.63057300  0.28632006  0.71296059     0.02400
C1666       C  0.63180693  0.30140114  0.69885298    -0.33500
H1667       H  0.60275516  0.28347080  0.74977042     0.13500
H1668       H  0.60264055  0.25298121  0.77903950     0.13300
H1669       H  0.65698435  0.21826257  0.74305655     0.13100
H1670       H  0.65710025  0.24870355  0.71383340     0.12200
C1671       C  0.02670299  0.36234234  0.85305573     0.18500
C1672       C  0.01477840  0.36035808  0.87381581    -0.10600
C1673       C  0.99077776  0.36008962  0.87394441    -0.11500
C1674       C  0.97856359  0.36179981  0.85331593     0.20100
C1675       C  0.99049992  0.36399535  0.83259007    -0.13500
C1676       C  0.01447499  0.36426366  0.83246148    -0.11800
C1677       C  0.95385912  0.36065291  0.85323730     0.01000
C1678       C  0.93324645  0.35904906  0.85224232    -0.31800
C1679       C  0.05141851  0.36165924  0.85271408     0.02400
C1680       C  0.07203347  0.36026666  0.85157392    -0.33500
H1681       H  0.02401710  0.35878029  0.88984196     0.13500
H1682       H  0.98176569  0.35831758  0.89007877     0.13300
H1683       H  0.98128167  0.36526275  0.81652177     0.13100
H1684       H  0.02347268  0.36572461  0.81628746     0.12200
C1685       C  0.86004064  0.36085303  0.02116458     0.18500
C1686       C  0.87419819  0.34541326  0.00941998    -0.10600
C1687       C  0.87421341  0.34491286  0.98543287    -0.11500
C1688       C  0.86007138  0.35985077  0.97305088     0.20100
C1689       C  0.84609341  0.37545913  0.98479171    -0.13500
C1690       C  0.84607708  0.37595835  0.00878219    -0.11800
C1691       C  0.85932608  0.35864195  0.94837511     0.01000
C1692       C  0.85804216  0.35704855  0.92778211    -0.31800
C1693       C  0.85912283  0.36049108  0.04585562     0.02400
C1694       C  0.85759983  0.35923393  0.06644836    -0.33500
H1695       H  0.88498071  0.33357453  0.01879776     0.13500
H1696       H  0.88502896  0.33270579  0.97655901     0.13300
H1697       H  0.83502211  0.38702820  0.97541823     0.13100
H1698       H  0.83497165  0.38789450  0.01766264     0.12200
C1699       C  0.73785059  0.37527816  0.72779649     0.18500
C1700       C  0.76032031  0.38163225  0.72217999    -0.10600
C1701       C  0.77740095  0.38162856  0.73904092    -0.11500
C1702       C  0.77209153  0.37527621  0.76158693     0.20100
C1703       C  0.74958152  0.36912926  0.76722632    -0.13500
C1704       C  0.73251692  0.36913368  0.75038142    -0.11800
C1705       C  0.78975484  0.37453746  0.77884222     0.01000
C1706       C  0.80433517  0.37326998  0.79345895    -0.31800
C1707       C  0.72039843  0.37442225  0.71033436     0.02400
C1708       C  0.70570481  0.37294914  0.69584907    -0.33500
H1709       H  0.76466068  0.38636444  0.70477394     0.13500
H1710       H  0.79476036  0.38637683  0.73446089     0.13300
H1711       H  0.74527873  0.36414779  0.78457173     0.13100
H1712       H  0.71521686  0.36413702  0.75492053     0.12200
C1713       C  0.73442165  0.23565440  0.86993109     0.18500
C1714       C  0.75127768  0.23548944  0.85282033    -0.10600
C1715       C  0.76808712  0.25262183  0.85227012    -0.11500
C1716       C  0.76817627  0.27005928  0.86882605     0.20100
C1717       C  0.75138987  0.27016379  0.88601050    -0.13500
C1718       C  0.73456997  0.25302300  0.88655967    -0.11800
C1719       C  0.78533286  0.28790963  0.86804441     0.01000
C1720       C  0.79968382  0.30283075  0.86707011    -0.31800
C1721       C  0.71677164  0.21828313  0.87005573     0.02400
C1722       C  0.70195654  0.20381796  0.86923389    -0.33500
H1723       H  0.75134233  0.22220660  0.83984024     0.13500
H1724       H  0.78094245  0.25232729  0.83887702     0.13300
H1725       H  0.75124331  0.28353431  0.89889726     0.13100
H1726       H  0.72161954  0.25339326  0.89985768     0.12200
C1727       C  0.85818507  0.14332776  0.47363690     0.18500
C1728       C  0.87575009  0.15408854  0.48601568    -0.10600
C1729       C  0.87548518  0.15392533  0.51001167    -0.11500
C1730       C  0.85764819  0.14300358  0.52180513     0.20100
C1731       C  0.84017136  0.13206434  0.50943629    -0.13500
C1732       C  0.84043683  0.13222683  0.48542611    -0.11800
C1733       C  0.85690459  0.14372391  0.54652441     0.01000
C1734       C  0.85586274  0.14518808  0.56715354    -0.31800
C1735       C  0.85799524  0.14432455  0.44891135     0.02400
C1736       C  0.85725870  0.14590201  0.42827436    -0.33500
H1737       H  0.88951573  0.16280975  0.47712361     0.13500
H1738       H  0.88903780  0.16251969  0.51935649     0.13300
H1739       H  0.82622844  0.12363669  0.51833948     0.13100
H1740       H  0.82670566  0.12392391  0.47607382     0.12200
C1741       C  0.02656312  0.14854890  0.63878800     0.18500
C1742       C  0.01457046  0.16546871  0.65088015    -0.10600
C1743       C  0.99062877  0.16543367  0.65099228    -0.11500
C1744       C  0.97852631  0.14848321  0.63900822     0.20100
C1745       C  0.99050143  0.13156957  0.62685990    -0.13500
C1746       C  0.01448725  0.13160465  0.62674827    -0.11800
C1747       C  0.95386115  0.14848645  0.63943442     0.01000
C1748       C  0.93326068  0.14936702  0.64072683    -0.31800
C1749       C  0.05122094  0.14854196  0.63906598     0.02400
C1750       C  0.07182442  0.14934200  0.64028343    -0.33500
H1751       H  0.02372692  0.17863148  0.66028085     0.13500
H1752       H  0.98155719  0.17857377  0.66046918     0.13300
H1753       H  0.98132131  0.11836125  0.61755886     0.13100
H1754       H  0.02358982  0.11842033  0.61737225     0.12200
C1755       C  0.76895915  0.23446268  0.62394014     0.18500
C1756       C  0.77300946  0.25622475  0.61463247    -0.10600
C1757       C  0.75551853  0.27261960  0.61427203    -0.11500
C1758       C  0.73387021  0.26734687  0.62321164     0.20100
C1759       C  0.72974055  0.24549260  0.63228890    -0.13500
C1760       C  0.74723296  0.22909495  0.63264702    -0.11800
C1761       C  0.71616644  0.28456862  0.62371573     0.01000
C1762       C  0.70153715  0.29913977  0.62489493    -0.31800
C1763       C  0.78719081  0.21784134  0.62507790     0.02400
C1764       C  0.80235162  0.20386604  0.62660926    -0.33500
H1765       H  0.78974004  0.26059317  0.60787168     0.13500
H1766       H  0.75893638  0.28945617  0.60726129     0.13300
H1767       H  0.71308987  0.24121465  0.63930413     0.13100
H1768       H  0.74389744  0.21234747  0.63990827     0.12200
C1769       C  0.73737316  0.12871881  0.76610524     0.18500
C1770       C  0.73258843  0.11860833  0.74482970    -0.10600
C1771       C  0.74918395  0.11854324  0.72752248    -0.11500
C1772       C  0.77065655  0.12859190  0.73140101     0.20100
C1773       C  0.77552019  0.13850070  0.75275347    -0.13500
C1774       C  0.75892768  0.13856540  0.77005790    -0.11800
C1775       C  0.78745962  0.12926633  0.71332065     0.01000
C1776       C  0.80145756  0.13047769  0.69815533    -0.31800
C1777       C  0.72002887  0.12951317  0.78366673     0.02400
C1778       C  0.70546104  0.13078724  0.79828416    -0.33500
H1779       H  0.71597012  0.11097244  0.74155115     0.13500
H1780       H  0.74521126  0.11087120  0.71108556     0.13300
H1781       H  0.79204975  0.14636296  0.75594897     0.13100
H1782       H  0.76281679  0.14646364  0.78640842     0.12200
C1783       C  0.87495202  0.26754494  0.76642315     0.18500
C1784       C  0.88779061  0.27040188  0.74635081    -0.10600
C1785       C  0.88752450  0.25342392  0.72941297    -0.11500
C1786       C  0.87441516  0.23354199  0.73249402     0.20100
C1787       C  0.86160650  0.23067230  0.75258828    -0.13500
C1788       C  0.86187314  0.24764410  0.76952037    -0.11800
C1789       C  0.87388695  0.21621533  0.71495343     0.01000
C1790       C  0.87297733  0.20167183  0.70030335    -0.31800
C1791       C  0.87487468  0.28513015  0.78370364     0.02400
C1792       C  0.87403839  0.29973629  0.79828685    -0.33500
H1793       H  0.89791052  0.28576009  0.74376597     0.13500
H1794       H  0.89744549  0.25582341  0.71391729     0.13300
H1795       H  0.85136913  0.21537900  0.75511864     0.13100
H1796       H  0.85183560  0.24530307  0.78495456     0.12200
C1797       C  0.47825027  0.64327613  0.64009791     0.18500
C1798       C  0.49019640  0.64362703  0.61925155    -0.10600
C1799       C  0.51420253  0.64420862  0.61916098    -0.11500
C1800       C  0.52635046  0.64444862  0.63991426     0.20100
C1801       C  0.51437035  0.64385655  0.66070787    -0.13500
C1802       C  0.49042507  0.64327261  0.66079755    -0.11800
C1803       C  0.55103121  0.64588009  0.64008664     0.01000
C1804       C  0.57161224  0.64764024  0.64137408    -0.31800
C1805       C  0.45355821  0.64382622  0.64047670     0.02400
C1806       C  0.43299634  0.64532734  0.64205097    -0.33500
H1807       H  0.48097808  0.64372168  0.60313096     0.13500
H1808       H  0.52325747  0.64471023  0.60296316     0.13300
H1809       H  0.52353700  0.64408881  0.67685652     0.13100
H1810       H  0.48139638  0.64309634  0.67701907     0.12200
C1811       C  0.64374077  0.47758696  0.64078512     0.18500
C1812       C  0.66373281  0.48983096  0.64600799    -0.10600
C1813       C  0.66364634  0.51380556  0.64581847    -0.11500
C1814       C  0.64356388  0.52578068  0.64040437     0.20100
C1815       C  0.62357386  0.51357038  0.63495391    -0.13500
C1816       C  0.62366098  0.48952590  0.63514218    -0.11800
C1817       C  0.64357304  0.55053089  0.64106242     0.01000
C1818       C  0.64487714  0.57115515  0.64257044    -0.31800
C1819       C  0.64394221  0.45284611  0.64171302     0.02400
C1820       C  0.64533406  0.43223303  0.64324409    -0.33500
H1821       H  0.67936061  0.48083686  0.65041725     0.13500
H1822       H  0.67919396  0.52300887  0.65009315     0.13300
H1823       H  0.60791426  0.52261114  0.63076325     0.13100
H1824       H  0.60808236  0.48028046  0.63108500     0.12200
C1825       C  0.64337071  0.64441899  0.47395615     0.18500
C1826       C  0.65520317  0.62713106  0.48567090    -0.10600
C1827       C  0.65520705  0.62668532  0.50963980    -0.11500
C1828       C  0.64337621  0.64352463  0.52200028     0.20100
C1829       C  0.63129971  0.66065151  0.51028829    -0.13500
C1830       C  0.63129703  0.66109856  0.48631301    -0.11800
C1831       C  0.64453317  0.64387802  0.54663827     0.01000
C1832       C  0.64641898  0.64508731  0.56718088    -0.31800
C1833       C  0.64446314  0.64559457  0.44933714     0.02400
C1834       C  0.64638455  0.64711101  0.42881817    -0.33500
H1835       H  0.66468976  0.61422123  0.47629216     0.13500
H1836       H  0.66470645  0.61344193  0.51852158     0.13300
H1837       H  0.62219981  0.67383179  0.51967803     0.13100
H1838       H  0.62218536  0.67461402  0.47743477     0.12200
C1839       C  0.85850397  0.52658129  0.85296918     0.18500
C1840       C  0.83954447  0.51440222  0.84464503    -0.10600
C1841       C  0.83951871  0.49043140  0.84491411    -0.11500
C1842       C  0.85845512  0.47844341  0.85350768     0.20100
C1843       C  0.87753263  0.49059632  0.86165263    -0.13500
C1844       C  0.87755765  0.51461723  0.86138477    -0.11800
C1845       C  0.85816236  0.45372050  0.85379614     0.01000
C1846       C  0.85689845  0.43307036  0.85311355    -0.31800
C1847       C  0.85819609  0.55130350  0.85292225     0.02400
C1848       C  0.85692854  0.57195070  0.85230143    -0.33500
H1849       H  0.82474117  0.52344020  0.83802664     0.13500
H1850       H  0.82471467  0.48124814  0.83848264     0.13300
H1851       H  0.89232233  0.48152643  0.86825102     0.13100
H1852       H  0.89234676  0.52383288  0.86779691     0.12200
C1853       C  0.02671796  0.64530404  0.85477672     0.18500
C1854       C  0.01461197  0.64982939  0.83452867    -0.10600
C1855       C  0.99064486  0.64945575  0.83443090    -0.11500
C1856       C  0.97854208  0.64455917  0.85458011     0.20100
C1857       C  0.99061956  0.63995108  0.87485533    -0.13500
C1858       C  0.01464441  0.64032338  0.87495292    -0.11800
C1859       C  0.95379292  0.64482823  0.85436407     0.01000
C1860       C  0.93315688  0.64602420  0.85309620    -0.31800
C1861       C  0.05145823  0.64613385  0.85472297     0.02400
C1862       C  0.07208809  0.64754380  0.85355210    -0.33500
H1863       H  0.02370306  0.65375985  0.81883238     0.13500
H1864       H  0.98154642  0.65312321  0.81866433     0.13300
H1865       H  0.98148836  0.63621314  0.89057388     0.13100
H1866       H  0.02377638  0.63684753  0.89074185     0.12200
C1867       C  0.85716607  0.64375209  0.02226527     0.18500
C1868       C  0.87621136  0.65273948  0.01073315    -0.10600
C1869       C  0.87667903  0.65314538  0.98674674    -0.11500
C1870       C  0.85810680  0.64455922  0.97414854     0.20100
C1871       C  0.83910561  0.63546195  0.98568136    -0.13500
C1872       C  0.83863738  0.63505753  0.00966952    -0.11800
C1873       C  0.85824809  0.64562161  0.94945033     0.01000
C1874       C  0.85761330  0.64708530  0.92881653    -0.31800
C1875       C  0.85634129  0.64415387  0.04696494     0.02400
C1876       C  0.85529807  0.64541732  0.06759278    -0.33500
H1877       H  0.89058369  0.65961283  0.02027414     0.13500
H1878       H  0.89142065  0.66031798  0.97803974     0.13300
H1879       H  0.82459881  0.62886905  0.97614270     0.13100
H1880       H  0.82376208  0.62816749  0.01838159     0.12200
C1881       C  0.73755973  0.62958073  0.72822021     0.18500
C1882       C  0.75663393  0.64398722  0.72584268    -0.10600
C1883       C  0.77373398  0.64426093  0.74266208    -0.11500
C1884       C  0.77189381  0.63014364  0.76199105     0.20100
C1885       C  0.75288573  0.61561777  0.76432685    -0.13500
C1886       C  0.73576312  0.61534310  0.74748471    -0.11800
C1887       C  0.78929363  0.63095856  0.77955663     0.01000
C1888       C  0.80385805  0.63232216  0.79421227    -0.31800
C1889       C  0.71977398  0.62973394  0.71102723     0.02400
C1890       C  0.70508790  0.63063665  0.69646094    -0.33500
H1891       H  0.75821699  0.65508953  0.71106598     0.13500
H1892       H  0.78832017  0.65559505  0.74066405     0.13300
H1893       H  0.75123918  0.60464946  0.77919448     0.13100
H1894       H  0.72108603  0.60414214  0.74954637     0.12200
C1895       C  0.47837478  0.86243754  0.85336394     0.18500
C1896       C  0.49090807  0.88165109  0.84621932    -0.10600
C1897       C  0.51489452  0.88108919  0.84634073    -0.11500
C1898       C  0.52643571  0.86131353  0.85359919     0.20100
C1899       C  0.51388635  0.84222385  0.86097450    -0.13500
C1900       C  0.48994053  0.84278595  0.86085710    -0.11800
C1901       C  0.55108231  0.86023703  0.85276291     0.01000
C1902       C  0.57163824  0.85855245  0.85142823    -0.31800
C1903       C  0.45370735  0.86241498  0.85229557     0.02400
C1904       C  0.43312396  0.86104677  0.85090807    -0.33500
H1905       H  0.48216161  0.89692098  0.84031089     0.13500
H1906       H  0.52441456  0.89592726  0.84053053     0.13300
H1907       H  0.52260644  0.82681294  0.86654934     0.13100
H1908       H  0.48044620  0.82780620  0.86633819     0.12200
C1909       C  0.64501194  0.02559851  0.85474849     0.18500
C1910       C  0.66404519  0.01418319  0.86392693    -0.10600
C1911       C  0.66445116  0.99021111  0.86477199    -0.11500
C1912       C  0.64582556  0.97751568  0.85644768     0.20100
C1913       C  0.62669206  0.98892855  0.84750192    -0.13500
C1914       C  0.62628617  0.01290344  0.84665502    -0.11800
C1915       C  0.64675685  0.95283095  0.85617189     0.01000
C1916       C  0.64810352  0.93223058  0.85489613    -0.31800
C1917       C  0.64504817  0.05025721  0.85301501     0.02400
C1918       C  0.64599116  0.07084538  0.85113702    -0.33500
H1919       H  0.67865749  0.02379477  0.87016879     0.13500
H1920       H  0.67938851  0.98158425  0.87162947     0.13300
H1921       H  0.61224073  0.97929997  0.84091855     0.13100
H1922       H  0.61150744  0.02151910  0.83945297     0.12200
C1923       C  0.64488604  0.86040159  0.02175079     0.18500
C1924       C  0.62389499  0.85929627  0.01010579    -0.10600
C1925       C  0.62339593  0.85886598  0.98609427    -0.11500
C1926       C  0.64389471  0.85953667  0.97360179     0.20100
C1927       C  0.66485225  0.86094602  0.98525772    -0.13500
C1928       C  0.66535076  0.86137344  0.00923748    -0.11800
C1929       C  0.64362344  0.85806730  0.94890604     0.01000
C1930       C  0.64464514  0.85620702  0.92830847    -0.31800
C1931       C  0.64556273  0.85967064  0.04647028     0.02400
C1932       C  0.64686648  0.85814211  0.06707786    -0.33500
H1933       H  0.60795588  0.85847172  0.01957696     0.13500
H1934       H  0.60708969  0.85773150  0.97730287     0.13300
H1935       H  0.68082491  0.86142807  0.97581067     0.13100
H1936       H  0.68168938  0.86216254  0.01801414     0.12200
C1937       C  0.63200624  0.73342941  0.73203920     0.18500
C1938       C  0.63352432  0.72753846  0.75525841    -0.10600
C1939       C  0.63348306  0.74466958  0.77202343    -0.11500
C1940       C  0.63192278  0.76775481  0.76564113     0.20100
C1941       C  0.63046728  0.77366459  0.74241120    -0.13500
C1942       C  0.63050821  0.75652095  0.72563422    -0.11800
C1943       C  0.63200627  0.78530733  0.78296105     0.01000
C1944       C  0.63249965  0.79970118  0.79777690    -0.31800
C1945       C  0.63220887  0.71579537  0.71481216     0.02400
C1946       C  0.63280413  0.70101536  0.70039373    -0.33500
H1947       H  0.63476598  0.70973912  0.76038278     0.13500
H1948       H  0.63469025  0.73992885  0.78993867     0.13300
H1949       H  0.62932885  0.79147071  0.73729209     0.13100
H1950       H  0.62940404  0.76125307  0.70771148     0.12200
C1951       C  0.76854367  0.73435316  0.87166278     0.18500
C1952       C  0.77442293  0.75646546  0.86437418    -0.10600
C1953       C  0.75799290  0.77390860  0.86434331    -0.11500
C1954       C  0.73557449  0.76934519  0.87160092     0.20100
C1955       C  0.72972287  0.74727484  0.87907130    -0.13500
C1956       C  0.74616803  0.72981570  0.87910241    -0.11800
C1957       C  0.71850362  0.78716159  0.87078772     0.01000
C1958       C  0.70424696  0.80206485  0.86939499    -0.31800
C1959       C  0.78535224  0.71628209  0.87097691     0.02400
C1960       C  0.79962994  0.70138941  0.86967194    -0.33500
H1961       H  0.79165309  0.76017189  0.85853349     0.13500
H1962       H  0.76270572  0.79087359  0.85847928     0.13300
H1963       H  0.71242402  0.74352185  0.88467125     0.13100
H1964       H  0.74140494  0.71278408  0.88472673     0.12200
C1965       C  0.86132403  0.85959675  0.47431824     0.18500
C1966       C  0.87747109  0.84733264  0.48718958    -0.10600
C1967       C  0.87684723  0.84804299  0.51118331    -0.11500
C1968       C  0.86007305  0.86102045  0.52246379     0.20100
C1969       C  0.84405190  0.87343734  0.50959304    -0.13500
C1970       C  0.84467614  0.87272863  0.48560812    -0.11800
C1971       C  0.85873522  0.86085911  0.54716887     0.01000
C1972       C  0.85700580  0.85972348  0.56776995    -0.31800
C1973       C  0.86131888  0.85815524  0.44960286     0.02400
C1974       C  0.86027361  0.85658910  0.42896924    -0.33500
H1975       H  0.89036628  0.83703628  0.47869303     0.13500
H1976       H  0.88925793  0.83827102  0.52092531     0.13300
H1977       H  0.83092621  0.88343783  0.51808887     0.13100
H1978       H  0.83203255  0.88220820  0.47587798     0.12200
C1979       C  0.02646207  0.86140216  0.64121334     0.18500
C1980       C  0.01394314  0.86978473  0.65993294    -0.10600
C1981       C  0.98994771  0.86936784  0.65955554    -0.11500
C1982       C  0.97827085  0.86055809  0.64046056     0.20100
C1983       C  0.99078221  0.85249236  0.62160067    -0.13500
C1984       C  0.01478365  0.85291109  0.62197726    -0.11800
C1985       C  0.95355617  0.85896206  0.64065997     0.01000
C1986       C  0.93296250  0.85697668  0.64176866    -0.31800
C1987       C  0.05120449  0.86069879  0.64211019     0.02400
C1988       C  0.07183766  0.85926923  0.64335298    -0.33500
H1989       H  0.02272236  0.87633739  0.67494039     0.13500
H1990       H  0.98051503  0.87560067  0.67427830     0.13300
H1991       H  0.98200046  0.84557982  0.60675610     0.13100
H1992       H  0.02422422  0.84632000  0.60741650     0.12200
C1993       C  0.86212517  0.97836867  0.64379560     0.18500
C1994       C  0.87055140  0.99006423  0.62458151    -0.10600
C1995       C  0.87086494  0.01407190  0.62428711    -0.11500
C1996       C  0.86275268  0.02646082  0.64321195     0.20100
C1997       C  0.85449721  0.01474425  0.66246420    -0.13500
C1998       C  0.85418209  0.99078481  0.66275709    -0.11800
C1999       C  0.86231412  0.05114805  0.64285669     0.01000
C2000       C  0.86083347  0.07175664  0.64367252    -0.31800
C2001       C  0.86116356  0.95368367  0.64402429     0.02400
C2002       C  0.85954328  0.93308352  0.64498685    -0.33500
H2003       H  0.87670604  0.98064708  0.60980450     0.13500
H2004       H  0.87724436  0.02294344  0.60928963     0.13300
H2005       H  0.84813666  0.02413518  0.67717529     0.13100
H2006       H  0.84759413  0.98194734  0.67769027     0.12200
C2007       C  0.73429067  0.73601662  0.62200986     0.18500
C2008       C  0.72923656  0.75894316  0.62714968    -0.10600
C2009       C  0.74667468  0.77546003  0.62734756    -0.11500
C2010       C  0.76933108  0.76919674  0.62240836     0.20100
C2011       C  0.77432198  0.74634833  0.61683413    -0.13500
C2012       C  0.75687302  0.72982168  0.61663572    -0.11800
C2013       C  0.78747934  0.78604099  0.62386383     0.01000
C2014       C  0.80248574  0.80023188  0.62582887    -0.31800
C2015       C  0.71651631  0.71876780  0.62316596     0.02400
C2016       C  0.70173130  0.70434325  0.62501440    -0.33500
H2017       H  0.71187485  0.76399108  0.63135790     0.13500
H2018       H  0.74255155  0.79302801  0.63168821     0.13300
H2019       H  0.79174738  0.74124009  0.61298140     0.13100
H2020       H  0.76104610  0.71218199  0.61264992     0.12200
C2021       C  0.87580899  0.73877202  0.76855330     0.18500
C2022       C  0.86135508  0.75786211  0.77021894    -0.10600
C2023       C  0.86129092  0.77443447  0.75291566    -0.11500
C2024       C  0.87566745  0.77200599  0.73384570     0.20100
C2025       C  0.89028257  0.75302396  0.73226533    -0.13500
C2026       C  0.89034764  0.73643676  0.74958509    -0.11800
C2027       C  0.87500810  0.78877798  0.71576348     0.01000
C2028       C  0.87361887  0.80302582  0.70086326    -0.31800
C2029       C  0.87525307  0.72134774  0.78601536     0.02400
C2030       C  0.87405272  0.70664207  0.80048380    -0.33500
H2031       H  0.85001035  0.75982587  0.78477444     0.13500
H2032       H  0.84990289  0.78902824  0.75430803     0.13300
H2033       H  0.90145422  0.75095829  0.71759088     0.13100
H2034       H  0.90156395  0.72172079  0.74809543     0.12200
C2035       C  0.73354571  0.87525517  0.76343363     0.18500
C2036       C  0.72952993  0.86461479  0.74226918    -0.10600
C2037       C  0.74647938  0.86473541  0.72534112    -0.11500
C2038       C  0.76754737  0.87549865  0.72948468     0.20100
C2039       C  0.77152442  0.88627468  0.75060066    -0.13500
C2040       C  0.75455791  0.88615430  0.76754486    -0.11800
C2041       C  0.78518299  0.87498105  0.71223376     0.01000
C2042       C  0.79979390  0.87375318  0.69767126    -0.31800
C2043       C  0.71627462  0.87453492  0.78103042     0.02400
C2044       C  0.70170462  0.87319725  0.79561403    -0.33500
H2045       H  0.71336379  0.85608365  0.73891721     0.13500
H2046       H  0.74323385  0.85630499  0.70911599     0.13300
H2047       H  0.78777648  0.89460623  0.75402101     0.13100
H2048       H  0.75786796  0.89438510  0.78385740     0.12200
loop_ 
_geom_bond_atom_site_label_1 
_geom_bond_atom_site_label_2 
_geom_bond_distance 
_geom_bond_site_symmetry_2 
_ccdc_geom_bond_type 
O1          Cr19   2.012       .  S
O1            C9   1.265       .  A
O2          Cr19   1.979       .  S
O2            C3   1.259       .  A
C3            O4   1.265       .  A
C3         C1972   1.438       .  S
O4          Cr20   2.011       .  S
O5          Cr20   1.983       .  S
O5            C6   1.260       .  A
C6            O7   1.265       .  A
C6         C1986   1.441       .  S
O7          Cr21   2.011       .  S
O8          Cr21   1.976       .  S
O8            C9   1.258       .  A
C9         C2002   1.437       .  S
O10         Cr19   1.976       .  S
O10          C18   1.258       .  A
O11         Cr19   2.014       .  S
O11          C12   1.265       .  A
C12          O13   1.259       .  A
C12        C2014   1.442       .  S
O13         Cr20   1.983       .  S
O14         Cr20   2.012       .  S
O14          C15   1.264       .  A
C15          O16   1.257       .  A
C15        C2028   1.435       .  S
O16         Cr21   1.973       .  S
O17         Cr21   2.011       .  S
O17          C18   1.264       .  A
C18        C2042   1.436       .  S
Cr19         O22   1.776       .  S
Cr20         O22   1.775       .  S
Cr21         O22   1.776       .  S
O23         Cr41   1.979       .  S
O23          C31   1.260       .  A
O24         Cr41   2.012       .  S
O24          C25   1.265       .  A
C25          O26   1.258       .  A
C25        C1902   1.436       .  S
O26         Cr42   1.976       .  S
O27         Cr42   2.010       .  S
O27          C28   1.265       .  A
C28          O29   1.259       .  A
C28        C1916   1.436       .  S
O29         Cr43   1.977       .  S
O30         Cr43   2.011       .  S
O30          C31   1.265       .  A
C31        C1930   1.438       .  S
O32         Cr41   2.011       .  S
O32          C40   1.264       .  A
O33         Cr41   1.974       .  S
O33          C34   1.257       .  A
C34          O35   1.264       .  A
C34        C1944   1.433       .  S
O35         Cr42   2.009       .  S
O36         Cr42   1.974       .  S
O36          C37   1.257       .  A
C37          O38   1.264       .  A
C37        C2044   1.435       .  S
O38         Cr43   2.011       .  S
O39         Cr43   1.977       .  S
O39          C40   1.258       .  A
C40        C1958   1.436       .  S
Cr41         O44   1.774       .  S
Cr42         O44   1.774       .  S
Cr43         O44   1.773       .  S
O45         Cr63   1.980       .  S
O45          C53   1.259       .  A
O46         Cr63   2.010       .  S
O46          C47   1.265       .  A
C47          O48   1.260       .  A
C47        C1848   1.437       .  S
O48         Cr64   1.980       .  S
O49         Cr64   2.011       .  S
O49          C50   1.265       .  A
C50          O51   1.259       .  A
C50        C1874   1.437       .  S
O51         Cr65   1.978       .  S
O52         Cr65   2.013       .  S
O52          C53   1.266       .  A
C53        C1860   1.440       .  S
O54         Cr63   2.009       .  S
O54          C62   1.264       .  A
O55         Cr63   1.979       .  S
O55          C56   1.258       .  A
C56          O57   1.264       .  A
C56        C1888   1.438       .  S
O57         Cr64   2.012       .  S
O58         Cr64   1.977       .  S
O58          C59   1.258       .  A
C59          O60   1.265       .  A
C59        C1960   1.437       .  S
O60         Cr65   2.011       .  S
O61         Cr65   1.976       .  S
O61          C62   1.257       .  A
C62        C2030   1.435       .  S
Cr63         O66   1.775       .  S
Cr64         O66   1.775       .  S
Cr65         O66   1.775       .  S
O67         Cr85   2.012       .  S
O67          C75   1.265       .  A
O68         Cr85   1.979       .  S
O68          C69   1.259       .  A
C69          O70   1.266       .  A
C69        C1818   1.440       .  S
O70         Cr86   2.014       .  S
O71         Cr86   1.976       .  S
O71          C72   1.259       .  A
C72          O73   1.264       .  A
C72        C1832   1.434       .  S
O73         Cr87   2.007       .  S
O74         Cr87   1.979       .  S
O74          C75   1.259       .  A
C75        C1804   1.439       .  S
O76         Cr85   1.973       .  S
O76          C84   1.257       .  A
O77         Cr85   2.013       .  S
O77          C78   1.265       .  A
C78          O79   1.258       .  A
C78        C1890   1.438       .  S
O79         Cr86   1.977       .  S
O80         Cr86   2.015       .  S
O80          C81   1.265       .  A
C81          O82   1.259       .  A
C81        C2016   1.442       .  S
O82         Cr87   1.981       .  S
O83         Cr87   2.008       .  S
O83          C84   1.264       .  A
C84        C1946   1.433       .  S
Cr85         O88   1.775       .  S
Cr86         O88   1.774       .  S
Cr87         O88   1.775       .  S
O89        Cr107   1.978       .  S
O89          C97   1.258       .  A
O90        Cr107   2.013       .  S
O90          C91   1.266       .  A
C91          O92   1.259       .  A
C91        C1734   1.438       .  S
O92        Cr108   1.977       .  S
O93        Cr108   2.012       .  S
O93          C94   1.266       .  A
C94          O95   1.258       .  A
C94        C2000   1.436       .  S
O95        Cr109   1.975       .  S
O96        Cr109   2.008       .  S
O96          C97   1.264       .  A
C97        C1748   1.435       .  S
O98        Cr107   2.012       .  S
O98         C106   1.265       .  A
O99        Cr107   1.977       .  S
O99         C100   1.258       .  A
C100        O101   1.264       .  A
C100       C1764   1.437       .  S
O101       Cr108   2.010       .  S
O102       Cr108   1.978       .  S
O102        C103   1.258       .  A
C103        O104   1.264       .  A
C103       C1776   1.437       .  S
O104       Cr109   2.010       .  S
O105       Cr109   1.971       .  S
O105        C106   1.257       .  A
C106       C1790   1.433       .  S
Cr107       O110   1.774       .  S
Cr108       O110   1.773       .  S
Cr109       O110   1.775       .  S
O111       Cr129   2.009       .  S
O111        C119   1.264       .  A
O112       Cr129   1.977       .  S
O112        C113   1.259       .  A
C113        O114   1.266       .  A
C113       C1678   1.439       .  S
O114       Cr130   2.015       .  S
O115       Cr130   1.976       .  S
O115        C116   1.259       .  A
C116        O117   1.265       .  A
C116       C1692   1.437       .  S
O117       Cr131   2.012       .  S
O118       Cr131   1.981       .  S
O118        C119   1.260       .  A
C119       C1846   1.438       .  S
O120       Cr129   1.976       .  S
O120        C128   1.258       .  A
O121       Cr129   2.009       .  S
O121        C122   1.263       .  A
C122        O123   1.257       .  A
C122       C1792   1.433       .  S
O123       Cr130   1.972       .  S
O124       Cr130   2.013       .  S
O124        C125   1.265       .  A
C125        O126   1.258       .  A
C125       C1720   1.440       .  S
O126       Cr131   1.980       .  S
O127       Cr131   2.012       .  S
O127        C128   1.265       .  A
C128       C1706   1.436       .  S
Cr129       O132   1.775       .  S
Cr130       O132   1.775       .  S
Cr131       O132   1.774       .  S
O133       Cr151   1.978       .  S
O133        C141   1.259       .  A
O134       Cr151   2.013       .  S
O134        C135   1.266       .  A
C135        O136   1.259       .  A
C135       C1650   1.439       .  S
O136       Cr152   1.978       .  S
O137       Cr152   2.010       .  S
O137        C138   1.264       .  A
C138        O139   1.259       .  A
C138       C1918   1.438       .  S
O139       Cr153   1.980       .  S
O140       Cr153   2.013       .  S
O140        C141   1.265       .  A
C141       C1636   1.439       .  S
O142       Cr151   2.012       .  S
O142        C150   1.265       .  A
O143       Cr151   1.978       .  S
O143        C144   1.258       .  A
C144        O145   1.264       .  A
C144       C1722   1.440       .  S
O145       Cr152   2.013       .  S
O146       Cr152   1.976       .  S
O146        C147   1.258       .  A
C147        O148   1.265       .  A
C147       C1778   1.437       .  S
O148       Cr153   2.012       .  S
O149       Cr153   1.977       .  S
O149        C150   1.258       .  A
C150       C1664   1.437       .  S
Cr151       O154   1.775       .  S
Cr152       O154   1.776       .  S
Cr153       O154   1.776       .  S
O155       Cr173   1.977       .  S
O155        C163   1.258       .  A
O156       Cr173   2.014       .  S
O156        C157   1.266       .  A
C157        O158   1.259       .  A
C157       C1820   1.440       .  S
O158       Cr174   1.980       .  S
O159       Cr174   2.012       .  S
O159        C160   1.265       .  A
C160        O161   1.259       .  A
C160       C1610   1.438       .  S
O161       Cr175   1.978       .  S
O162       Cr175   2.011       .  S
O162        C163   1.265       .  A
C163       C1622   1.437       .  S
O164       Cr173   2.014       .  S
O164        C172   1.265       .  A
O165       Cr173   1.975       .  S
O165        C166   1.257       .  A
C166        O167   1.264       .  A
C166       C1708   1.436       .  S
O167       Cr174   2.012       .  S
O168       Cr174   1.978       .  S
O168        C169   1.258       .  A
C169        O170   1.265       .  A
C169       C1666   1.438       .  S
O170       Cr175   2.012       .  S
O171       Cr175   1.975       .  S
O171        C172   1.258       .  A
C172       C1762   1.437       .  S
Cr173       O176   1.775       .  S
Cr174       O176   1.775       .  S
Cr175       O176   1.775       .  S
O177       Cr195   2.012       .  S
O177        C185   1.266       .  A
O178       Cr195   1.980       .  S
O178        C179   1.259       .  A
C179        O180   1.265       .  A
C179       C1988   1.441       .  S
O180       Cr196   2.013       .  S
O181       Cr196   1.982       .  S
O181        C182   1.259       .  A
C182        O183   1.265       .  A
C182       C1538   1.441       .  S
O183       Cr197   2.012       .  S
O184       Cr197   1.978       .  S
O184        C185   1.260       .  A
C185       C1552   1.438       .  S
O186       Cr195   1.979       .  S
O186        C194   1.257       .  A
O187       Cr195   2.011       .  S
O187        C188   1.265       .  A
C188        O189   1.258       .  A
C188       C1580   1.438       .  S
O189       Cr196   1.977       .  S
O190       Cr196   2.012       .  S
O190        C191   1.265       .  A
C191        O192   1.258       .  A
C191       C1566   1.437       .  S
O192       Cr197   1.977       .  S
O193       Cr197   2.010       .  S
O193        C194   1.263       .  A
C194       C1594   1.437       .  S
Cr195       O198   1.776       .  S
Cr196       O198   1.776       .  S
Cr197       O198   1.776       .  S
O199       Cr217   2.013       .  S
O199        C207   1.265       .  A
O200       Cr217   1.978       .  S
O200        C201   1.259       .  A
C201        O202   1.264       .  A
C201       C1484   1.435       .  S
O202       Cr218   2.008       .  S
O203       Cr218   1.976       .  S
O203        C204   1.258       .  A
C204        O205   1.266       .  A
C204       C1904   1.437       .  S
O205       Cr219   2.013       .  S
O206       Cr219   1.978       .  S
O206        C207   1.259       .  A
C207       C1498   1.439       .  S
O208       Cr217   1.975       .  S
O208        C216   1.258       .  A
O209       Cr217   2.013       .  S
O209        C210   1.265       .  A
C210        O211   1.258       .  A
C210       C1596   1.436       .  S
O211       Cr218   1.975       .  S
O212       Cr218   2.011       .  S
O212        C213   1.264       .  A
C213        O214   1.257       .  A
C213       C1510   1.436       .  S
O214       Cr219   1.975       .  S
O215       Cr219   2.013       .  S
O215        C216   1.265       .  A
C216       C1526   1.437       .  S
Cr217       O220   1.775       .  S
Cr218       O220   1.775       .  S
Cr219       O220   1.774       .  S
O221       Cr239   1.980       .  S
O221        C229   1.259       .  A
O222       Cr239   2.011       .  S
O222        C223   1.266       .  A
C223        O224   1.259       .  A
C223       C1454   1.435       .  S
O224       Cr240   1.975       .  S
O225       Cr240   2.009       .  S
O225        C226   1.264       .  A
C226        O227   1.259       .  A
C226       C1440   1.435       .  S
O227       Cr241   1.978       .  S
O228       Cr241   2.013       .  S
O228        C229   1.265       .  A
C229       C1862   1.440       .  S
O230       Cr239   2.012       .  S
O230        C238   1.265       .  A
O231       Cr239   1.978       .  S
O231        C232   1.258       .  A
C232        O233   1.263       .  A
C232       C1524   1.437       .  S
O233       Cr240   2.009       .  S
O234       Cr240   1.973       .  S
O234        C235   1.258       .  A
C235        O236   1.264       .  A
C235       C1470   1.433       .  S
O236       Cr241   2.011       .  S
O237       Cr241   1.975       .  S
O237        C238   1.257       .  A
C238       C1582   1.437       .  S
Cr239       O242   1.774       .  S
Cr240       O242   1.775       .  S
Cr241       O242   1.774       .  S
O243       Cr261   2.009       .  S
O243        C251   1.264       .  A
O244       Cr261   1.977       .  S
O244        C245   1.259       .  A
C245        O246   1.266       .  A
C245       C1806   1.437       .  S
O246       Cr262   2.012       .  S
O247       Cr262   1.977       .  S
O247        C248   1.259       .  A
C248        O249   1.265       .  A
C248       C1428   1.438       .  S
O249       Cr263   2.011       .  S
O250       Cr263   1.979       .  S
O250        C251   1.259       .  A
C251       C1412   1.437       .  S
O252       Cr261   1.973       .  S
O252        C260   1.258       .  A
O253       Cr261   2.009       .  S
O253        C254   1.263       .  A
C254        O255   1.257       .  A
C254       C1512   1.436       .  S
O255       Cr262   1.977       .  S
O256       Cr262   2.011       .  S
O256        C257   1.264       .  A
C257        O258   1.257       .  A
C257       C1568   1.437       .  S
O258       Cr263   1.975       .  S
O259       Cr263   2.009       .  S
O259        C260   1.264       .  A
C260       C1468   1.433       .  S
Cr261       O264   1.774       .  S
Cr262       O264   1.773       .  S
Cr263       O264   1.774       .  S
O265       Cr283   2.012       .  S
O265        C273   1.265       .  A
O266       Cr283   1.975       .  S
O266        C267   1.258       .  A
C267        O268   1.265       .  A
C267       C1750   1.435       .  S
O268       Cr284   2.010       .  S
O269       Cr284   1.978       .  S
O269        C270   1.259       .  A
C270        O271   1.265       .  A
C270       C1554   1.438       .  S
O271       Cr285   2.012       .  S
O272       Cr285   1.980       .  S
O272        C273   1.259       .  A
C273       C1356   1.439       .  S
O274       Cr283   1.975       .  S
O274        C282   1.258       .  A
O275       Cr283   2.010       .  S
O275        C276   1.264       .  A
C276        O277   1.258       .  A
C276       C1370   1.436       .  S
O277       Cr284   1.976       .  S
O278       Cr284   2.012       .  S
O278        C279   1.265       .  A
C279        O280   1.258       .  A
C279       C1384   1.437       .  S
O280       Cr285   1.976       .  S
O281       Cr285   2.013       .  S
O281        C282   1.265       .  A
C282       C1400   1.437       .  S
Cr283       O286   1.775       .  S
Cr284       O286   1.775       .  S
Cr285       O286   1.774       .  S
O287       Cr305   2.011       .  S
O287        C295   1.265       .  A
O288       Cr305   1.978       .  S
O288        C289   1.259       .  A
C289        O290   1.265       .  A
C289       C1414   1.436       .  S
O290       Cr306   2.010       .  S
O291       Cr306   1.976       .  S
O291        C292   1.259       .  A
C292        O293   1.266       .  A
C292       C1316   1.436       .  S
O293       Cr307   2.013       .  S
O294       Cr307   1.979       .  S
O294        C295   1.259       .  A
C295       C1608   1.438       .  S
O296       Cr305   1.975       .  S
O296        C304   1.257       .  A
O297       Cr305   2.011       .  S
O297        C298   1.264       .  A
C298        O299   1.257       .  A
C298       C1342   1.435       .  S
O299       Cr306   1.975       .  S
O300       Cr306   2.009       .  S
O300        C301   1.263       .  A
C301        O302   1.258       .  A
C301       C1398   1.437       .  S
O302       Cr307   1.979       .  S
O303       Cr307   2.011       .  S
O303        C304   1.265       .  A
C304       C1330   1.436       .  S
Cr305       O308   1.775       .  S
Cr306       O308   1.774       .  S
Cr307       O308   1.774       .  S
O309       Cr327   1.976       .  S
O309        C317   1.259       .  A
O310       Cr327   2.012       .  S
O310        C311   1.265       .  A
C311        O312   1.259       .  A
C311       C1286   1.437       .  S
O312       Cr328   1.978       .  S
O313       Cr328   2.011       .  S
O313        C314   1.265       .  A
C314        O315   1.259       .  A
C314       C1638   1.438       .  S
O315       Cr329   1.979       .  S
O316       Cr329   2.009       .  S
O316        C317   1.265       .  A
C317       C1482   1.435       .  S
O318       Cr327   2.011       .  S
O318        C326   1.264       .  A
O319       Cr327   1.977       .  S
O319        C320   1.258       .  A
C320        O321   1.264       .  A
C320       C1300   1.436       .  S
O321       Cr328   2.010       .  S
O322       Cr328   1.975       .  S
O322        C323   1.257       .  A
C323        O324   1.265       .  A
C323       C1328   1.436       .  S
O324       Cr329   2.011       .  S
O325       Cr329   1.977       .  S
O325        C326   1.258       .  A
C326       C1386   1.437       .  S
Cr327       O330   1.774       .  S
Cr328       O330   1.774       .  S
Cr329       O330   1.775       .  S
O331       Cr349   1.978       .  S
O331        C339   1.259       .  A
O332       Cr349   2.013       .  S
O332        C333   1.265       .  A
C333        O334   1.259       .  A
C333       C1680   1.439       .  S
O334       Cr350   1.978       .  S
O335       Cr350   2.009       .  S
O335        C336   1.265       .  A
C336        O337   1.258       .  A
C336       C1442   1.434       .  S
O337       Cr351   1.975       .  S
O338       Cr351   2.011       .  S
O338        C339   1.265       .  A
C339       C1274   1.437       .  S
O340       Cr349   2.012       .  S
O340        C348   1.264       .  A
O341       Cr349   1.976       .  S
O341        C342   1.258       .  A
C342        O343   1.264       .  A
C342       C1372   1.435       .  S
O343       Cr350   2.010       .  S
O344       Cr350   1.976       .  S
O344        C345   1.257       .  A
C345        O346   1.264       .  A
C345       C1344   1.435       .  S
O346       Cr351   2.010       .  S
O347       Cr351   1.976       .  S
O347        C348   1.258       .  A
C348       C1302   1.436       .  S
Cr349       O352   1.774       .  S
Cr350       O352   1.775       .  S
Cr351       O352   1.775       .  S
O353       Cr371   2.009       .  S
O353        C361   1.264       .  A
O354       Cr371   1.980       .  S
O354        C355   1.260       .  A
C355        O356   1.265       .  A
C355       C1216   1.438       .  S
O356       Cr372   2.011       .  S
O357       Cr372   1.976       .  S
O357        C358   1.259       .  A
C358        O359   1.266       .  A
C358       C1202   1.436       .  S
O359       Cr373   2.011       .  S
O360       Cr373   1.982       .  S
O360        C361   1.259       .  A
C361       C1974   1.440       .  S
O362       Cr371   1.976       .  S
O362        C370   1.258       .  A
O363       Cr371   2.008       .  S
O363        C364   1.263       .  A
C364        O365   1.257       .  A
C364       C1244   1.433       .  S
O365       Cr372   1.975       .  S
O366       Cr372   2.010       .  S
O366        C367   1.263       .  A
C367        O368   1.258       .  A
C367       C1260   1.439       .  S
O368       Cr373   1.980       .  S
O369       Cr373   2.012       .  S
O369        C370   1.265       .  A
C370       C1230   1.437       .  S
Cr371       O374   1.777       .  S
Cr372       O374   1.776       .  S
Cr373       O374   1.775       .  S
O375       Cr393   1.977       .  S
O375        C383   1.259       .  A
O376       Cr393   2.009       .  S
O376        C377   1.264       .  A
C377        O378   1.258       .  A
C377       C1146   1.436       .  S
O378       Cr394   1.978       .  S
O379       Cr394   2.015       .  S
O379        C380   1.266       .  A
C380        O381   1.260       .  A
C380       C1160   1.443       .  S
O381       Cr395   1.982       .  S
O382       Cr395   2.012       .  S
O382        C383   1.266       .  A
C383       C1876   1.437       .  S
O384       Cr393   2.007       .  S
O384        C392   1.263       .  A
O385       Cr393   1.977       .  S
O385        C386   1.258       .  A
C386        O387   1.265       .  A
C386       C1176   1.439       .  S
O387       Cr394   2.015       .  S
O388       Cr394   1.976       .  S
O388        C389   1.258       .  A
C389        O390   1.265       .  A
C389       C1258   1.438       .  S
O390       Cr395   2.012       .  S
O391       Cr395   1.978       .  S
O391        C392   1.258       .  A
C392       C1188   1.435       .  S
Cr393       O396   1.777       .  S
Cr394       O396   1.775       .  S
Cr395       O396   1.775       .  S
O397       Cr415   2.011       .  S
O397        C405   1.265       .  A
O398       Cr415   1.979       .  S
O398        C399   1.259       .  A
C399        O400   1.265       .  A
C399       C1932   1.438       .  S
O400       Cr416   2.012       .  S
O401       Cr416   1.976       .  S
O401        C402   1.259       .  A
C402        O403   1.267       .  A
C402       C1120   1.438       .  S
O403       Cr417   2.015       .  S
O404       Cr417   1.974       .  S
O404        C405   1.258       .  A
C405       C1104   1.436       .  S
O406       Cr415   1.974       .  S
O406        C414   1.257       .  A
O407       Cr415   2.009       .  S
O407        C408   1.264       .  A
C408        O409   1.258       .  A
C408       C1190   1.433       .  S
O409       Cr416   1.975       .  S
O410       Cr416   2.009       .  S
O410        C411   1.263       .  A
C411        O412   1.256       .  A
C411       C1246   1.433       .  S
O412       Cr417   1.973       .  S
O413       Cr417   2.014       .  S
O413        C414   1.265       .  A
C414       C1132   1.436       .  S
Cr415       O418   1.775       .  S
Cr416       O418   1.774       .  S
Cr417       O418   1.774       .  S
O419       Cr437   1.976       .  S
O419        C427   1.259       .  A
O420       Cr437   2.015       .  S
O420        C421   1.266       .  A
C421        O422   1.259       .  A
C421       C1092   1.440       .  S
O422       Cr438   1.979       .  S
O423       Cr438   2.014       .  S
O423        C424   1.266       .  A
C424        O425   1.258       .  A
C424       C1076   1.439       .  S
O425       Cr439   1.976       .  S
O426       Cr439   2.010       .  S
O426        C427   1.265       .  A
C427       C1834   1.435       .  S
O428       Cr437   2.013       .  S
O428        C436   1.264       .  A
O429       Cr437   1.978       .  S
O429        C430   1.259       .  A
C430        O431   1.265       .  A
C430       C1174   1.438       .  S
O431       Cr438   2.011       .  S
O432       Cr438   1.973       .  S
O432        C433   1.257       .  A
C433        O434   1.264       .  A
C433       C1134   1.435       .  S
O434       Cr439   2.011       .  S
O435       Cr439   1.975       .  S
O435        C436   1.257       .  A
C436       C1232   1.437       .  S
Cr437       O440   1.775       .  S
Cr438       O440   1.774       .  S
Cr439       O440   1.775       .  S
O441       Cr459   2.013       .  S
O441        C449   1.265       .  A
O442       Cr459   1.979       .  S
O442        C443   1.260       .  A
C443        O444   1.266       .  A
C443       C1118   1.438       .  S
O444       Cr460   2.012       .  S
O445       Cr460   1.979       .  S
O445        C446   1.260       .  A
C446        O447   1.266       .  A
C446       C1652   1.440       .  S
O447       Cr461   2.014       .  S
O448       Cr461   1.980       .  S
O448        C449   1.259       .  A
C449       C1020   1.440       .  S
O450       Cr459   1.973       .  S
O450        C458   1.257       .  A
O451       Cr459   2.011       .  S
O451        C452   1.264       .  A
C452        O453   1.259       .  A
C452       C1048   1.440       .  S
O453       Cr460   1.983       .  S
O454       Cr460   2.011       .  S
O454        C455   1.264       .  A
C455        O456   1.258       .  A
C455       C1034   1.439       .  S
O456       Cr461   1.979       .  S
O457       Cr461   2.012       .  S
O457        C458   1.265       .  A
C458       C1064   1.435       .  S
Cr459       O462   1.776       .  S
Cr460       O462   1.775       .  S
Cr461       O462   1.776       .  S
O463       Cr481   1.981       .  S
O463        C471   1.260       .  A
O464       Cr481   2.010       .  S
O464        C465   1.265       .  A
C465        O466   1.259       .  A
C465       C1624   1.436       .  S
O466       Cr482   1.978       .  S
O467       Cr482   2.014       .  S
O467        C468   1.265       .  A
C468        O469   1.259       .  A
C468        C978   1.440       .  S
O469       Cr483   1.978       .  S
O470       Cr483   2.013       .  S
O470        C471   1.266       .  A
C471       C1090   1.440       .  S
O472       Cr481   2.009       .  S
O472        C480   1.263       .  A
O473       Cr481   1.980       .  S
O473        C474   1.259       .  A
C474        O475   1.265       .  A
C474        C992   1.439       .  S
O475       Cr482   2.013       .  S
O476       Cr482   1.974       .  S
O476        C477   1.257       .  A
C477        O478   1.265       .  A
C477       C1062   1.435       .  S
O478       Cr483   2.012       .  S
O479       Cr483   1.975       .  S
O479        C480   1.257       .  A
C480       C1006   1.435       .  S
Cr481       O484   1.775       .  S
Cr482       O484   1.776       .  S
Cr483       O484   1.775       .  S
O485       Cr503   2.013       .  S
O485        C493   1.265       .  A
O486       Cr503   1.978       .  S
O486        C487   1.259       .  A
C487        O488   1.266       .  A
C487        C950   1.438       .  S
O488       Cr504   2.014       .  S
O489       Cr504   1.977       .  S
O489        C490   1.259       .  A
C490        O491   1.266       .  A
C490       C1218   1.439       .  S
O491       Cr505   2.014       .  S
O492       Cr505   1.978       .  S
O492        C493   1.258       .  A
C493       C1736   1.439       .  S
O494       Cr503   1.977       .  S
O494        C502   1.258       .  A
O495       Cr503   2.011       .  S
O495        C496   1.264       .  A
C496        O497   1.258       .  A
C496        C966   1.436       .  S
O497       Cr504   1.976       .  S
O498       Cr504   2.014       .  S
O498        C499   1.265       .  A
C499        O500   1.258       .  A
C499       C1050   1.440       .  S
O500       Cr505   1.978       .  S
O501       Cr505   2.012       .  S
O501        C502   1.265       .  A
C502        C994   1.438       .  S
Cr503       O506   1.776       .  S
Cr504       O506   1.775       .  S
Cr505       O506   1.774       .  S
O507       Cr525   2.011       .  S
O507        C515   1.265       .  A
O508       Cr525   1.981       .  S
O508        C509   1.260       .  A
C509        O510   1.266       .  A
C509        C936   1.440       .  S
O510       Cr526   2.013       .  S
O511       Cr526   1.976       .  S
O511        C512   1.258       .  A
C512        O513   1.264       .  A
C512       C1148   1.435       .  S
O513       Cr527   2.010       .  S
O514       Cr527   1.978       .  S
O514        C515   1.259       .  A
C515       C1694   1.437       .  S
O516       Cr525   1.980       .  S
O516        C524   1.259       .  A
O517       Cr525   2.010       .  S
O517        C518   1.264       .  A
C518        O519   1.257       .  A
C518        C964   1.436       .  S
O519       Cr526   1.975       .  S
O520       Cr526   2.011       .  S
O520        C521   1.264       .  A
C521        O522   1.258       .  A
C521       C1008   1.435       .  S
O522       Cr527   1.975       .  S
O523       Cr527   2.011       .  S
O523        C524   1.264       .  A
C524       C1036   1.439       .  S
Cr525       O528   1.775       .  S
Cr526       O528   1.775       .  S
Cr527       O528   1.775       .  S
O529       Cr547   1.976       .  S
O529        C537   1.259       .  A
O530       Cr547   2.015       .  S
O530        C531   1.266       .  A
C531        O532   1.258       .  A
C531       C1358   1.440       .  S
O532       Cr548   1.978       .  S
O533       Cr548   2.015       .  S
O533        C534   1.266       .  A
C534        O535   1.259       .  A
C534        C882   1.440       .  S
O535       Cr549   1.978       .  S
O536       Cr549   2.011       .  S
O536        C537   1.265       .  A
C537        C952   1.436       .  S
O538       Cr547   2.014       .  S
O538        C546   1.265       .  A
O539       Cr547   1.975       .  S
O539        C540   1.258       .  A
C540        O541   1.265       .  A
C540        C896   1.438       .  S
O541       Cr548   2.014       .  S
O542       Cr548   1.973       .  S
O542        C543   1.257       .  A
C543        O544   1.264       .  A
C543        C908   1.433       .  S
O544       Cr549   2.009       .  S
O545       Cr549   1.978       .  S
O545        C546   1.258       .  A
C546        C922   1.439       .  S
Cr547       O550   1.774       .  S
Cr548       O550   1.775       .  S
Cr549       O550   1.775       .  S
O551       Cr569   2.013       .  S
O551        C559   1.265       .  A
O552       Cr569   1.978       .  S
O552        C553   1.259       .  A
C553        O554   1.264       .  A
C553       C1272   1.437       .  S
O554       Cr570   2.010       .  S
O555       Cr570   1.975       .  S
O555        C556   1.258       .  A
C556        O557   1.266       .  A
C556        C840   1.437       .  S
O557       Cr571   2.014       .  S
O558       Cr571   1.980       .  S
O558        C559   1.259       .  A
C559        C938   1.440       .  S
O560       Cr569   1.977       .  S
O560        C568   1.258       .  A
O561       Cr569   2.012       .  S
O561        C562   1.265       .  A
C562        O563   1.257       .  A
C562        C866   1.434       .  S
O563       Cr570   1.974       .  S
O564       Cr570   2.012       .  S
O564        C565   1.264       .  A
C565        O566   1.258       .  A
C565        C852   1.440       .  S
O566       Cr571   1.981       .  S
O567       Cr571   2.013       .  S
O567        C568   1.265       .  A
C568        C924   1.438       .  S
Cr569       O572   1.775       .  S
Cr570       O572   1.776       .  S
Cr571       O572   1.774       .  S
O573       Cr591   2.010       .  S
O573        C581   1.265       .  A
O574       Cr591   1.980       .  S
O574        C575   1.259       .  A
C575        O576   1.265       .  A
C575        C810   1.438       .  S
O576       Cr592   2.010       .  S
O577       Cr592   1.978       .  S
O577        C578   1.259       .  A
C578        O579   1.266       .  A
C578       C1022   1.439       .  S
O579       Cr593   2.014       .  S
O580       Cr593   1.978       .  S
O580        C581   1.260       .  A
C581       C1288   1.437       .  S
O582       Cr591   1.977       .  S
O582        C590   1.258       .  A
O583       Cr591   2.010       .  S
O583        C584   1.264       .  A
C584        O585   1.257       .  A
C584        C910   1.434       .  S
O585       Cr592   1.973       .  S
O586       Cr592   2.009       .  S
O586        C587   1.264       .  A
C587        O588   1.258       .  A
C587        C826   1.436       .  S
O588       Cr593   1.978       .  S
O589       Cr593   2.008       .  S
O589        C590   1.263       .  A
C590        C868   1.435       .  S
Cr591       O594   1.775       .  S
Cr592       O594   1.774       .  S
Cr593       O594   1.774       .  S
O595       Cr613   2.015       .  S
O595        C603   1.266       .  A
O596       Cr613   1.978       .  S
O596        C597   1.259       .  A
C597        O598   1.265       .  A
C597       C1314   1.437       .  S
O598       Cr614   2.011       .  S
O599       Cr614   1.974       .  S
O599        C600   1.258       .  A
C600        O601   1.265       .  A
C600        C796   1.434       .  S
O601       Cr615   2.010       .  S
O602       Cr615   1.980       .  S
O602        C603   1.259       .  A
C603        C980   1.441       .  S
O604       Cr613   1.975       .  S
O604        C612   1.258       .  A
O605       Cr613   2.014       .  S
O605        C606   1.265       .  A
C606        O607   1.257       .  A
C606        C894   1.437       .  S
O607       Cr614   1.975       .  S
O608       Cr614   2.012       .  S
O608        C609   1.264       .  A
C609        O610   1.258       .  A
C609        C854   1.439       .  S
O610       Cr615   1.978       .  S
O611       Cr615   2.009       .  S
O611        C612   1.264       .  A
C612        C824   1.435       .  S
Cr613       O616   1.775       .  S
Cr614       O616   1.775       .  S
Cr615       O616   1.775       .  S
O617       Cr635   1.974       .  S
O617        C625   1.258       .  A
O618       Cr635   2.014       .  S
O618        C619   1.265       .  A
C619        O620   1.260       .  A
C619       C1162   1.442       .  S
O620       Cr636   1.983       .  S
O621       Cr636   2.013       .  S
O621        C622   1.265       .  A
C622        O623   1.259       .  A
C622        C838   1.439       .  S
O623       Cr637   1.978       .  S
O624       Cr637   2.011       .  S
O624        C625   1.266       .  A
C625       C1456   1.434       .  S
O626       Cr635   2.014       .  S
O626        C634   1.264       .  A
O627       Cr635   1.973       .  S
O627        C628   1.258       .  A
C628        O629   1.265       .  A
C628        C770   1.436       .  S
O629       Cr636   2.013       .  S
O630       Cr636   1.977       .  S
O630        C631   1.258       .  A
C631        O632   1.264       .  A
C631        C782   1.438       .  S
O632       Cr637   2.011       .  S
O633       Cr637   1.979       .  S
O633        C634   1.258       .  A
C634        C754   1.440       .  S
Cr635       O638   1.775       .  S
Cr636       O638   1.775       .  S
Cr637       O638   1.776       .  S
O639       Cr657   1.981       .  S
O639        C647   1.260       .  A
O640       Cr657   2.010       .  S
O640        C641   1.265       .  A
C641        O642   1.258       .  A
C641        C798   1.434       .  S
O642       Cr658   1.975       .  S
O643       Cr658   2.012       .  S
O643        C644   1.265       .  A
C644        O645   1.258       .  A
C644       C1426   1.438       .  S
O645       Cr659   1.979       .  S
O646       Cr659   2.010       .  S
O646        C647   1.265       .  A
C647       C1078   1.439       .  S
O648       Cr657   2.010       .  S
O648        C656   1.264       .  A
O649       Cr657   1.978       .  S
O649        C650   1.258       .  A
C650        O651   1.264       .  A
C650        C784   1.437       .  S
O651       Cr658   2.011       .  S
O652       Cr658   1.974       .  S
O652        C653   1.257       .  A
C653        O654   1.265       .  A
C653        C742   1.437       .  S
O654       Cr659   2.013       .  S
O655       Cr659   1.976       .  S
O655        C656   1.258       .  A
C656        C728   1.436       .  S
Cr657       O660   1.775       .  S
Cr658       O660   1.775       .  S
Cr659       O660   1.774       .  S
O661       Cr679   2.016       .  S
O661        C669   1.266       .  A
O662       Cr679   1.977       .  S
O662        C663   1.259       .  A
C663        O664   1.266       .  A
C663       C1540   1.440       .  S
O664       Cr680   2.016       .  S
O665       Cr680   1.978       .  S
O665        C666   1.259       .  A
C666        O667   1.265       .  A
C666       C1204   1.436       .  S
O667       Cr681   2.010       .  S
O668       Cr681   1.978       .  S
O668        C669   1.259       .  A
C669        C880   1.440       .  S
O670       Cr679   1.974       .  S
O670        C678   1.257       .  A
O671       Cr679   2.013       .  S
O671        C672   1.265       .  A
C672        O673   1.257       .  A
C672        C740   1.438       .  S
O673       Cr680   1.977       .  S
O674       Cr680   2.013       .  S
O674        C675   1.265       .  A
C675        O676   1.257       .  A
C675        C768   1.436       .  S
O676       Cr681   1.975       .  S
O677       Cr681   2.011       .  S
O677        C678   1.264       .  A
C678        C712   1.435       .  S
Cr679       O682   1.774       .  S
Cr680       O682   1.775       .  S
Cr681       O682   1.775       .  S
O683       Cr701   1.975       .  S
O683        C691   1.258       .  A
O684       Cr701   2.010       .  S
O684        C685   1.264       .  A
C685        O686   1.259       .  A
C685        C812   1.439       .  S
O686       Cr702   1.981       .  S
O687       Cr702   2.013       .  S
O687        C688   1.266       .  A
C688        O689   1.259       .  A
C688       C1496   1.439       .  S
O689       Cr703   1.978       .  S
O690       Cr703   2.014       .  S
O690        C691   1.266       .  A
C691       C1106   1.436       .  S
O692       Cr701   2.010       .  S
O692        C700   1.264       .  A
O693       Cr701   1.973       .  S
O693        C694   1.257       .  A
C694        O695   1.265       .  A
C694        C714   1.435       .  S
O695       Cr702   2.013       .  S
O696       Cr702   1.979       .  S
O696        C697   1.258       .  A
C697        O698   1.265       .  A
C697        C756   1.440       .  S
O698       Cr703   2.013       .  S
O699       Cr703   1.977       .  S
O699        C700   1.258       .  A
C700        C726   1.437       .  S
Cr701       O704   1.775       .  S
Cr702       O704   1.774       .  S
Cr703       O704   1.774       .  S
C705        C713   1.440       .  S
C705        C706   1.401       .  A
C705        C710   1.401       .  A
C706        C707   1.399       .  A
C706        H715   1.083       .  S
C707        C708   1.401       .  A
C707        H716   1.084       .  S
C708        C711   1.440       .  S
C708        C709   1.402       .  A
C709        C710   1.399       .  A
C709        H717   1.083       .  S
C710        H718   1.084       .  S
C711        C712   1.206       .  T
C713        C714   1.206       .  T
C719        C727   1.441       .  S
C719        C720   1.401       .  A
C719        C724   1.402       .  A
C720        C721   1.399       .  A
C720        H729   1.084       .  S
C721        C722   1.401       .  A
C721        H730   1.083       .  S
C722        C725   1.442       .  S
C722        C723   1.402       .  A
C723        C724   1.400       .  A
C723        H731   1.084       .  S
C724        H732   1.083       .  S
C725        C726   1.207       .  T
C727        C728   1.207       .  T
C733        C741   1.442       .  S
C733        C734   1.402       .  A
C733        C738   1.402       .  A
C734        C735   1.400       .  A
C734        H743   1.084       .  S
C735        C736   1.402       .  A
C735        H744   1.083       .  S
C736        C739   1.443       .  S
C736        C737   1.402       .  A
C737        C738   1.400       .  A
C737        H745   1.084       .  S
C738        H746   1.083       .  S
C739        C740   1.208       .  T
C741        C742   1.207       .  T
C747        C755   1.445       .  S
C747        C748   1.402       .  A
C747        C752   1.402       .  A
C748        C749   1.401       .  A
C748        H757   1.083       .  S
C749        C750   1.402       .  A
C749        H758   1.084       .  S
C750        C753   1.445       .  S
C750        C751   1.402       .  A
C751        C752   1.401       .  A
C751        H759   1.083       .  S
C752        H760   1.084       .  S
C753        C754   1.209       .  T
C755        C756   1.209       .  T
C761        C769   1.441       .  S
C761        C762   1.402       .  A
C761        C766   1.401       .  A
C762        C763   1.400       .  A
C762        H771   1.083       .  S
C763        C764   1.402       .  A
C763        H772   1.084       .  S
C764        C767   1.441       .  S
C764        C765   1.402       .  A
C765        C766   1.399       .  A
C765        H773   1.083       .  S
C766        H774   1.084       .  S
C767        C768   1.207       .  T
C769        C770   1.207       .  T
C775        C783   1.442       .  S
C775        C776   1.402       .  A
C775        C780   1.402       .  A
C776        C777   1.400       .  A
C776        H785   1.084       .  S
C777        C778   1.402       .  A
C777        H786   1.083       .  S
C778        C781   1.442       .  S
C778        C779   1.401       .  A
C779        C780   1.400       .  A
C779        H787   1.084       .  S
C780        H788   1.083       .  S
C781        C782   1.207       .  T
C783        C784   1.207       .  T
C789        C797   1.439       .  S
C789        C790   1.401       .  A
C789        C794   1.401       .  A
C790        C791   1.398       .  A
C790        H799   1.083       .  S
C791        C792   1.401       .  A
C791        H800   1.084       .  S
C792        C795   1.439       .  S
C792        C793   1.402       .  A
C793        C794   1.400       .  A
C793        H801   1.083       .  S
C794        H802   1.084       .  S
C795        C796   1.205       .  T
C797        C798   1.205       .  T
C803        C811   1.443       .  S
C803        C804   1.402       .  A
C803        C808   1.402       .  A
C804        C805   1.401   1_565  A
C804        H813   1.083       .  S
C805        C806   1.402       .  A
C805        H814   1.084       .  S
C806        C809   1.443       .  S
C806        C807   1.402       .  A
C807        C808   1.400   1_545  A
C807        H815   1.083       .  S
C808        H816   1.084       .  S
C809        C810   1.208       .  T
C811        C812   1.208       .  T
C817        C825   1.441       .  S
C817        C818   1.402       .  A
C817        C822   1.401       .  A
C818        C819   1.399       .  A
C818        H827   1.084       .  S
C819        C820   1.401       .  A
C819        H828   1.083       .  S
C820        C823   1.440       .  S
C820        C821   1.401       .  A
C821        C822   1.399       .  A
C821        H829   1.084       .  S
C822        H830   1.083       .  S
C823        C824   1.206       .  T
C825        C826   1.207       .  T
C831        C839   1.442       .  S
C831        C832   1.403       .  A
C831        C836   1.401       .  A
C832        C833   1.402       .  A
C832        H841   1.084       .  S
C833        C834   1.403       .  A
C833        H842   1.083       .  S
C834        C837   1.443       .  S
C834        C835   1.401       .  A
C835        C836   1.398       .  A
C835        H843   1.084       .  S
C836        H844   1.083       .  S
C837        C838   1.208       .  T
C839        C840   1.207       .  T
C845        C853   1.444       .  S
C845        C846   1.402       .  A
C845        C850   1.402       .  A
C846        C847   1.400       .  A
C846        H855   1.084       .  S
C847        C848   1.402       .  A
C847        H856   1.083       .  S
C848        C851   1.445       .  S
C848        C849   1.402       .  A
C849        C850   1.401       .  A
C849        H857   1.084       .  S
C850        H858   1.083       .  S
C851        C852   1.209       .  T
C853        C854   1.208       .  T
C859        C867   1.440       .  S
C859        C860   1.401       .  A
C859        C864   1.402       .  A
C860        C861   1.398       .  A
C860        H869   1.083       .  S
C861        C862   1.401       .  A
C861        H870   1.084       .  S
C862        C865   1.439       .  S
C862        C863   1.402       .  A
C863        C864   1.400       .  A
C863        H871   1.083       .  S
C864        H872   1.084       .  S
C865        C866   1.205       .  T
C867        C868   1.206       .  T
C873        C881   1.445       .  S
C873        C874   1.402       .  A
C873        C878   1.402       .  A
C874        C875   1.401   1_545  A
C874        H883   1.084       .  S
C875        C876   1.403       .  A
C875        H884   1.083       .  S
C876        C879   1.445       .  S
C876        C877   1.402       .  A
C877        C878   1.401   1_565  A
C877        H885   1.084       .  S
C878        H886   1.083       .  S
C879        C880   1.209       .  T
C881        C882   1.209       .  T
C887        C895   1.442       .  S
C887        C888   1.402       .  A
C887        C892   1.402       .  A
C888        C889   1.400       .  A
C888        H897   1.084       .  S
C889        C890   1.402       .  A
C889        H898   1.083       .  S
C890        C893   1.442       .  S
C890        C891   1.402       .  A
C891        C892   1.400       .  A
C891        H899   1.084       .  S
C892        H900   1.083       .  S
C893        C894   1.207       .  T
C895        C896   1.207       .  T
C901        C909   1.439       .  S
C901        C902   1.401       .  A
C901        C906   1.401       .  A
C902        C903   1.398       .  A
C902        H911   1.083       .  S
C903        C904   1.401       .  A
C903        H912   1.084       .  S
C904        C907   1.438       .  S
C904        C905   1.401       .  A
C905        C906   1.399       .  A
C905        H913   1.083       .  S
C906        H914   1.084       .  S
C907        C908   1.205       .  T
C909        C910   1.205       .  T
C915        C923   1.443       .  S
C915        C916   1.402       .  A
C915        C920   1.402       .  A
C916        C917   1.400       .  A
C916        H925   1.084       .  S
C917        C918   1.402       .  A
C917        H926   1.083       .  S
C918        C921   1.443       .  S
C918        C919   1.402       .  A
C919        C920   1.401       .  A
C919        H927   1.084       .  S
C920        H928   1.083       .  S
C921        C922   1.208       .  T
C923        C924   1.208       .  T
C929        C937   1.445       .  S
C929        C930   1.402       .  A
C929        C934   1.402       .  A
C930        C931   1.401   1_455  A
C930        H939   1.083       .  S
C931        C932   1.402       .  A
C931        H940   1.084       .  S
C932        C935   1.445       .  S
C932        C933   1.402       .  A
C933        C934   1.401   1_655  A
C933        H941   1.083       .  S
C934        H942   1.084       .  S
C935        C936   1.209       .  T
C937        C938   1.209       .  T
C943        C951   1.441       .  S
C943        C944   1.401       .  A
C943        C948   1.402       .  A
C944        C945   1.399   1_455  A
C944        H953   1.083       .  S
C945        C946   1.402       .  A
C945        H954   1.084       .  S
C946        C949   1.442       .  S
C946        C947   1.402       .  A
C947        C948   1.400   1_655  A
C947        H955   1.083       .  S
C948        H956   1.084       .  S
C949        C950   1.207       .  T
C951        C952   1.207       .  T
C957        C965   1.440       .  S
C957        C958   1.402       .  A
C957        C962   1.401       .  A
C958        C959   1.400       .  A
C958        H967   1.083       .  S
C959        C960   1.402       .  A
C959        H968   1.084       .  S
C960        C963   1.440       .  S
C960        C961   1.401       .  A
C961        C962   1.399       .  A
C961        H969   1.083       .  S
C962        H970   1.084       .  S
C963        C964   1.206       .  T
C965        C966   1.206       .  T
C971        C979   1.446       .  S
C971        C972   1.402       .  A
C971        C976   1.402       .  A
C972        C973   1.401       .  A
C972        H981   1.083       .  S
C973        C974   1.402       .  A
C973        H982   1.084       .  S
C974        C977   1.445       .  S
C974        C975   1.402       .  A
C975        C976   1.401       .  A
C975        H983   1.083       .  S
C976        H984   1.084       .  S
C977        C978   1.209       .  T
C979        C980   1.209       .  T
C985        C993   1.443       .  S
C985        C986   1.402       .  A
C985        C990   1.402       .  A
C986        C987   1.401       .  A
C986        H995   1.083       .  S
C987        C988   1.402       .  A
C987        H996   1.083       .  S
C988        C991   1.444       .  S
C988        C989   1.402       .  A
C989        C990   1.400       .  A
C989        H997   1.083       .  S
C990        H998   1.083       .  S
C991        C992   1.208       .  T
C993        C994   1.208       .  T
C999       C1007   1.440       .  S
C999       C1000   1.401       .  A
C999       C1004   1.401       .  A
C1000      C1001   1.399       .  A
C1000      H1009   1.083       .  S
C1001      C1002   1.401       .  A
C1001      H1010   1.084       .  S
C1002      C1005   1.440       .  S
C1002      C1003   1.402       .  A
C1003      C1004   1.399       .  A
C1003      H1011   1.083       .  S
C1004      H1012   1.084       .  S
C1005      C1006   1.206       .  T
C1007      C1008   1.206       .  T
C1013      C1021   1.444       .  S
C1013      C1014   1.402       .  A
C1013      C1018   1.402       .  A
C1014      C1015   1.401       .  A
C1014      H1023   1.083       .  S
C1015      C1016   1.402       .  A
C1015      H1024   1.084       .  S
C1016      C1019   1.445       .  S
C1016      C1017   1.402       .  A
C1017      C1018   1.400       .  A
C1017      H1025   1.083       .  S
C1018      H1026   1.084       .  S
C1019      C1020   1.209       .  T
C1021      C1022   1.208       .  T
C1027      C1035   1.444       .  S
C1027      C1028   1.402       .  A
C1027      C1032   1.402       .  A
C1028      C1029   1.401       .  A
C1028      H1037   1.084       .  S
C1029      C1030   1.402       .  A
C1029      H1038   1.083       .  S
C1030      C1033   1.444       .  S
C1030      C1031   1.402       .  A
C1031      C1032   1.400       .  A
C1031      H1039   1.084       .  S
C1032      H1040   1.083       .  S
C1033      C1034   1.208       .  T
C1035      C1036   1.208       .  T
C1041      C1049   1.445       .  S
C1041      C1042   1.402       .  A
C1041      C1046   1.402       .  A
C1042      C1043   1.401       .  A
C1042      H1051   1.083       .  S
C1043      C1044   1.403       .  A
C1043      H1052   1.084       .  S
C1044      C1047   1.445       .  S
C1044      C1045   1.402       .  A
C1045      C1046   1.401       .  A
C1045      H1053   1.083       .  S
C1046      H1054   1.084       .  S
C1047      C1048   1.209       .  T
C1049      C1050   1.209       .  T
C1055      C1063   1.440       .  S
C1055      C1056   1.402       .  A
C1055      C1060   1.401       .  A
C1056      C1057   1.399       .  A
C1056      H1065   1.084       .  S
C1057      C1058   1.402       .  A
C1057      H1066   1.084       .  S
C1058      C1061   1.440       .  S
C1058      C1059   1.401       .  A
C1059      C1060   1.399       .  A
C1059      H1067   1.083       .  S
C1060      H1068   1.083       .  S
C1061      C1062   1.206       .  T
C1063      C1064   1.206       .  T
C1069      C1077   1.443       .  S
C1069      C1070   1.402       .  A
C1069      C1074   1.402       .  A
C1070      C1071   1.401       .  A
C1070      H1079   1.083       .  S
C1071      C1072   1.402       .  A
C1071      H1080   1.084       .  S
C1072      C1075   1.443       .  S
C1072      C1073   1.402       .  A
C1073      C1074   1.400       .  A
C1073      H1081   1.083       .  S
C1074      H1082   1.084       .  S
C1075      C1076   1.208       .  T
C1077      C1078   1.208       .  T
C1083      C1091   1.445       .  S
C1083      C1084   1.403       .  A
C1083      C1088   1.402       .  A
C1084      C1085   1.402       .  A
C1084      H1093   1.084       .  S
C1085      C1086   1.403       .  A
C1085      H1094   1.083       .  S
C1086      C1089   1.445       .  S
C1086      C1087   1.402       .  A
C1087      C1088   1.400       .  A
C1087      H1095   1.084       .  S
C1088      H1096   1.083       .  S
C1089      C1090   1.209       .  T
C1091      C1092   1.209       .  T
C1097      C1105   1.441       .  S
C1097      C1098   1.402       .  A
C1097      C1102   1.401       .  A
C1098      C1099   1.400       .  A
C1098      H1107   1.084       .  S
C1099      C1100   1.402       .  A
C1099      H1108   1.083       .  S
C1100      C1103   1.441       .  S
C1100      C1101   1.401       .  A
C1101      C1102   1.399       .  A
C1101      H1109   1.084       .  S
C1102      H1110   1.083       .  S
C1103      C1104   1.206       .  T
C1105      C1106   1.207       .  T
C1111      C1119   1.443       .  S
C1111      C1112   1.402       .  A
C1111      C1116   1.402       .  A
C1112      C1113   1.400   1_565  A
C1112      H1121   1.083       .  S
C1113      C1114   1.402       .  A
C1113      H1122   1.084       .  S
C1114      C1117   1.443       .  S
C1114      C1115   1.402       .  A
C1115      C1116   1.401   1_545  A
C1115      H1123   1.083       .  S
C1116      H1124   1.084       .  S
C1117      C1118   1.208       .  T
C1119      C1120   1.208       .  T
C1125      C1133   1.440       .  S
C1125      C1126   1.401       .  A
C1125      C1130   1.402       .  A
C1126      C1127   1.399       .  A
C1126      H1135   1.084       .  S
C1127      C1128   1.401       .  A
C1127      H1136   1.083       .  S
C1128      C1131   1.441       .  S
C1128      C1129   1.402       .  A
C1129      C1130   1.400       .  A
C1129      H1137   1.084       .  S
C1130      H1138   1.083       .  S
C1131      C1132   1.207       .  T
C1133      C1134   1.206       .  T
C1139      C1147   1.440       .  S
C1139      C1140   1.402       .  A
C1139      C1144   1.401       .  A
C1140      C1141   1.400       .  A
C1140      H1149   1.083       .  S
C1141      C1142   1.402       .  A
C1141      H1150   1.083       .  S
C1142      C1145   1.441       .  S
C1142      C1143   1.401       .  A
C1143      C1144   1.399       .  A
C1143      H1151   1.083       .  S
C1144      H1152   1.084       .  S
C1145      C1146   1.206       .  T
C1147      C1148   1.206       .  T
C1153      C1161   1.447       .  S
C1153      C1154   1.403       .  A
C1153      C1158   1.402       .  A
C1154      C1155   1.403   1_455  A
C1154      H1163   1.083       .  S
C1155      C1156   1.403       .  A
C1155      H1164   1.084       .  S
C1156      C1159   1.448       .  S
C1156      C1157   1.402       .  A
C1157      C1158   1.401   1_655  A
C1157      H1165   1.083       .  S
C1158      H1166   1.084       .  S
C1159      C1160   1.211       .  T
C1161      C1162   1.210       .  T
C1167      C1175   1.443       .  S
C1167      C1168   1.402       .  A
C1167      C1172   1.402       .  A
C1168      C1169   1.400       .  A
C1168      H1177   1.084       .  S
C1169      C1170   1.402       .  A
C1169      H1178   1.083       .  S
C1170      C1173   1.443       .  S
C1170      C1171   1.402       .  A
C1171      C1172   1.400       .  A
C1171      H1179   1.084       .  S
C1172      H1180   1.083       .  S
C1173      C1174   1.208       .  T
C1175      C1176   1.208       .  T
C1181      C1189   1.438       .  S
C1181      C1182   1.401       .  A
C1181      C1186   1.401       .  A
C1182      C1183   1.398       .  A
C1182      H1191   1.083       .  S
C1183      C1184   1.401       .  A
C1183      H1192   1.084       .  S
C1184      C1187   1.439       .  S
C1184      C1185   1.402       .  A
C1185      C1186   1.400       .  A
C1185      H1193   1.083       .  S
C1186      H1194   1.084       .  S
C1187      C1188   1.206       .  T
C1189      C1190   1.205       .  T
C1195      C1203   1.441       .  S
C1195      C1196   1.401       .  A
C1195      C1200   1.402       .  A
C1196      C1197   1.400   1_455  A
C1196      H1205   1.084       .  S
C1197      C1198   1.402       .  A
C1197      H1206   1.083       .  S
C1198      C1201   1.441       .  S
C1198      C1199   1.402       .  A
C1199      C1200   1.399   1_655  A
C1199      H1207   1.084       .  S
C1200      H1208   1.083       .  S
C1201      C1202   1.207       .  T
C1203      C1204   1.207       .  T
C1209      C1217   1.443       .  S
C1209      C1210   1.402       .  A
C1209      C1214   1.402       .  A
C1210      C1211   1.401   1_545  A
C1210      H1219   1.083       .  S
C1211      C1212   1.402       .  A
C1211      H1220   1.084       .  S
C1212      C1215   1.443       .  S
C1212      C1213   1.402       .  A
C1213      C1214   1.400   1_565  A
C1213      H1221   1.083       .  S
C1214      H1222   1.084       .  S
C1215      C1216   1.208       .  T
C1217      C1218   1.208       .  T
C1223      C1231   1.442       .  S
C1223      C1224   1.402       .  A
C1223      C1228   1.402       .  A
C1224      C1225   1.400       .  A
C1224      H1233   1.084       .  S
C1225      C1226   1.402       .  A
C1225      H1234   1.083       .  S
C1226      C1229   1.442       .  S
C1226      C1227   1.401       .  A
C1227      C1228   1.399       .  A
C1227      H1235   1.084       .  S
C1228      H1236   1.083       .  S
C1229      C1230   1.207       .  T
C1231      C1232   1.207       .  T
C1237      C1245   1.438       .  S
C1237      C1238   1.401       .  A
C1237      C1242   1.401       .  A
C1238      C1239   1.399       .  A
C1238      H1247   1.083       .  S
C1239      C1240   1.401       .  A
C1239      H1248   1.084       .  S
C1240      C1243   1.438       .  S
C1240      C1241   1.401       .  A
C1241      C1242   1.398       .  A
C1241      H1249   1.083       .  S
C1242      H1250   1.084       .  S
C1243      C1244   1.205       .  T
C1245      C1246   1.205       .  T
C1251      C1259   1.443       .  S
C1251      C1252   1.403       .  A
C1251      C1256   1.401       .  A
C1252      C1253   1.402       .  A
C1252      H1261   1.083       .  S
C1253      C1254   1.402       .  A
C1253      H1262   1.083       .  S
C1254      C1257   1.443       .  S
C1254      C1255   1.401       .  A
C1255      C1256   1.399       .  A
C1255      H1263   1.083       .  S
C1256      H1264   1.083       .  S
C1257      C1258   1.208       .  T
C1259      C1260   1.208       .  T
C1265      C1273   1.442       .  S
C1265      C1266   1.402       .  A
C1265      C1270   1.402       .  A
C1266      C1267   1.400   1_556  A
C1266      H1275   1.083       .  S
C1267      C1268   1.402       .  A
C1267      H1276   1.083       .  S
C1268      C1271   1.442       .  S
C1268      C1269   1.402       .  A
C1269      C1270   1.400   1_554  A
C1269      H1277   1.083       .  S
C1270      H1278   1.083       .  S
C1271      C1272   1.207       .  T
C1273      C1274   1.207       .  T
C1279      C1287   1.442       .  S
C1279      C1280   1.402       .  A
C1279      C1284   1.401       .  A
C1280      C1281   1.400   1_554  A
C1280      H1289   1.083       .  S
C1281      C1282   1.402       .  A
C1281      H1290   1.084       .  S
C1282      C1285   1.442       .  S
C1282      C1283   1.401       .  A
C1283      C1284   1.399   1_556  A
C1283      H1291   1.083       .  S
C1284      H1292   1.084       .  S
C1285      C1286   1.207       .  T
C1287      C1288   1.207       .  T
C1293      C1301   1.441       .  S
C1293      C1294   1.402       .  A
C1293      C1298   1.401       .  A
C1294      C1295   1.401       .  A
C1294      H1303   1.083       .  S
C1295      C1296   1.402       .  A
C1295      H1304   1.084       .  S
C1296      C1299   1.441       .  S
C1296      C1297   1.401       .  A
C1297      C1298   1.398       .  A
C1297      H1305   1.083       .  S
C1298      H1306   1.084       .  S
C1299      C1300   1.206       .  T
C1301      C1302   1.207       .  T
C1307      C1315   1.441       .  S
C1307      C1308   1.402       .  A
C1307      C1312   1.402       .  A
C1308      C1309   1.399       .  A
C1308      H1317   1.083       .  S
C1309      C1310   1.402       .  A
C1309      H1318   1.084       .  S
C1310      C1313   1.441       .  S
C1310      C1311   1.402       .  A
C1311      C1312   1.400       .  A
C1311      H1319   1.083       .  S
C1312      H1320   1.083       .  S
C1313      C1314   1.207       .  T
C1315      C1316   1.207       .  T
C1321      C1329   1.441       .  S
C1321      C1322   1.402       .  A
C1321      C1326   1.401       .  A
C1322      C1323   1.400       .  A
C1322      H1331   1.083       .  S
C1323      C1324   1.402       .  A
C1323      H1332   1.084       .  S
C1324      C1327   1.441       .  S
C1324      C1325   1.401       .  A
C1325      C1326   1.399       .  A
C1325      H1333   1.083       .  S
C1326      H1334   1.084       .  S
C1327      C1328   1.207       .  T
C1329      C1330   1.206       .  T
C1335      C1343   1.440       .  S
C1335      C1336   1.401       .  A
C1335      C1340   1.401       .  A
C1336      C1337   1.400       .  A
C1336      H1345   1.084       .  S
C1337      C1338   1.402       .  A
C1337      H1346   1.083       .  S
C1338      C1341   1.440       .  S
C1338      C1339   1.401       .  A
C1339      C1340   1.398       .  A
C1339      H1347   1.084       .  S
C1340      H1348   1.083       .  S
C1341      C1342   1.206       .  T
C1343      C1344   1.206       .  T
C1349      C1357   1.445       .  S
C1349      C1350   1.403       .  A
C1349      C1354   1.402       .  A
C1350      C1351   1.401       .  A
C1350      H1359   1.083       .  S
C1351      C1352   1.402       .  A
C1351      H1360   1.084       .  S
C1352      C1355   1.444       .  S
C1352      C1353   1.402       .  A
C1353      C1354   1.400       .  A
C1353      H1361   1.083       .  S
C1354      H1362   1.084       .  S
C1355      C1356   1.208       .  T
C1357      C1358   1.209       .  T
C1363      C1371   1.440       .  S
C1363      C1364   1.401       .  A
C1363      C1368   1.402       .  A
C1364      C1365   1.398       .  A
C1364      H1373   1.083       .  S
C1365      C1366   1.401       .  A
C1365      H1374   1.084       .  S
C1366      C1369   1.440       .  S
C1366      C1367   1.402       .  A
C1367      C1368   1.400       .  A
C1367      H1375   1.083       .  S
C1368      H1376   1.084       .  S
C1369      C1370   1.206       .  T
C1371      C1372   1.206       .  T
C1377      C1385   1.442       .  S
C1377      C1378   1.401       .  A
C1377      C1382   1.402       .  A
C1378      C1379   1.399       .  A
C1378      H1387   1.083       .  S
C1379      C1380   1.401       .  A
C1379      H1388   1.084       .  S
C1380      C1383   1.442       .  S
C1380      C1381   1.402       .  A
C1381      C1382   1.400       .  A
C1381      H1389   1.083       .  S
C1382      H1390   1.084       .  S
C1383      C1384   1.207       .  T
C1385      C1386   1.207       .  T
C1391      C1399   1.442       .  S
C1391      C1392   1.401       .  A
C1391      C1396   1.402       .  A
C1392      C1393   1.399       .  A
C1392      H1401   1.083       .  S
C1393      C1394   1.401       .  A
C1393      H1402   1.084       .  S
C1394      C1397   1.442       .  S
C1394      C1395   1.403       .  A
C1395      C1396   1.401       .  A
C1395      H1403   1.083       .  S
C1396      H1404   1.084       .  S
C1397      C1398   1.207       .  T
C1399      C1400   1.207       .  T
C1405      C1413   1.442       .  S
C1405      C1406   1.401       .  A
C1405      C1410   1.402       .  A
C1406      C1407   1.400       .  A
C1406      H1415   1.084       .  S
C1407      C1408   1.402       .  A
C1407      H1416   1.083       .  S
C1408      C1411   1.442       .  S
C1408      C1409   1.401       .  A
C1409      C1410   1.400       .  A
C1409      H1417   1.084       .  S
C1410      H1418   1.083       .  S
C1411      C1412   1.207       .  T
C1413      C1414   1.207       .  T
C1419      C1427   1.443       .  S
C1419      C1420   1.402       .  A
C1419      C1424   1.402       .  A
C1420      C1421   1.401       .  A
C1420      H1429   1.083       .  S
C1421      C1422   1.402       .  A
C1421      H1430   1.084       .  S
C1422      C1425   1.443       .  S
C1422      C1423   1.402       .  A
C1423      C1424   1.400       .  A
C1423      H1431   1.083       .  S
C1424      H1432   1.084       .  S
C1425      C1426   1.208       .  T
C1427      C1428   1.208       .  T
C1433      C1441   1.439       .  S
C1433      C1434   1.402       .  A
C1433      C1438   1.401       .  A
C1434      C1435   1.400       .  A
C1434      H1443   1.083       .  S
C1435      C1436   1.402       .  A
C1435      H1444   1.083       .  S
C1436      C1439   1.440       .  S
C1436      C1437   1.401       .  A
C1437      C1438   1.398       .  A
C1437      H1445   1.084       .  S
C1438      H1446   1.084       .  S
C1439      C1440   1.206       .  T
C1441      C1442   1.206       .  T
C1447      C1455   1.439       .  S
C1447      C1448   1.401       .  A
C1447      C1452   1.402       .  A
C1448      C1449   1.398   1_554  A
C1448      H1457   1.084       .  S
C1449      C1450   1.401       .  A
C1449      H1458   1.083       .  S
C1450      C1453   1.439       .  S
C1450      C1451   1.402       .  A
C1451      C1452   1.400   1_556  A
C1451      H1459   1.084       .  S
C1452      H1460   1.083       .  S
C1453      C1454   1.206       .  T
C1455      C1456   1.206       .  T
C1461      C1469   1.438       .  S
C1461      C1462   1.401       .  A
C1461      C1466   1.401       .  A
C1462      C1463   1.399       .  A
C1462      H1471   1.084       .  S
C1463      C1464   1.401       .  A
C1463      H1472   1.083       .  S
C1464      C1467   1.438       .  S
C1464      C1465   1.401       .  A
C1465      C1466   1.398       .  A
C1465      H1473   1.084       .  S
C1466      H1474   1.083       .  S
C1467      C1468   1.205       .  T
C1469      C1470   1.205       .  T
C1475      C1483   1.440       .  S
C1475      C1476   1.401       .  A
C1475      C1480   1.402       .  A
C1476      C1477   1.398   1_565  A
C1476      H1485   1.083       .  S
C1477      C1478   1.401       .  A
C1477      H1486   1.084       .  S
C1478      C1481   1.440       .  S
C1478      C1479   1.402       .  A
C1479      C1480   1.400   1_545  A
C1479      H1487   1.083       .  S
C1480      H1488   1.084       .  S
C1481      C1482   1.206       .  T
C1483      C1484   1.206       .  T
C1489      C1497   1.444       .  S
C1489      C1490   1.402       .  A
C1489      C1494   1.402       .  A
C1490      C1491   1.400   1_556  A
C1490      H1499   1.083       .  S
C1491      C1492   1.402       .  A
C1491      H1500   1.083       .  S
C1492      C1495   1.444       .  S
C1492      C1493   1.402       .  A
C1493      C1494   1.401   1_554  A
C1493      H1501   1.083       .  S
C1494      H1502   1.083       .  S
C1495      C1496   1.208       .  T
C1497      C1498   1.208       .  T
C1503      C1511   1.441       .  S
C1503      C1504   1.401       .  A
C1503      C1508   1.402       .  A
C1504      C1505   1.398       .  A
C1504      H1513   1.084       .  S
C1505      C1506   1.401       .  A
C1505      H1514   1.083       .  S
C1506      C1509   1.441       .  S
C1506      C1507   1.402       .  A
C1507      C1508   1.400       .  A
C1507      H1515   1.084       .  S
C1508      H1516   1.083       .  S
C1509      C1510   1.206       .  T
C1511      C1512   1.207       .  T
C1517      C1525   1.442       .  S
C1517      C1518   1.402       .  A
C1517      C1522   1.401       .  A
C1518      C1519   1.400       .  A
C1518      H1527   1.083       .  S
C1519      C1520   1.402       .  A
C1519      H1528   1.084       .  S
C1520      C1523   1.442       .  S
C1520      C1521   1.402       .  A
C1521      C1522   1.399       .  A
C1521      H1529   1.083       .  S
C1522      H1530   1.084       .  S
C1523      C1524   1.207       .  T
C1525      C1526   1.207       .  T
C1531      C1539   1.445       .  S
C1531      C1532   1.402       .  A
C1531      C1536   1.402       .  A
C1532      C1533   1.401       .  A
C1532      H1541   1.084       .  S
C1533      C1534   1.402       .  A
C1533      H1542   1.083       .  S
C1534      C1537   1.445       .  S
C1534      C1535   1.402       .  A
C1535      C1536   1.401       .  A
C1535      H1543   1.083       .  S
C1536      H1544   1.083       .  S
C1537      C1538   1.209       .  T
C1539      C1540   1.209       .  T
C1545      C1553   1.443       .  S
C1545      C1546   1.402       .  A
C1545      C1550   1.402       .  A
C1546      C1547   1.400   1_545  A
C1546      H1555   1.083       .  S
C1547      C1548   1.402       .  A
C1547      H1556   1.084       .  S
C1548      C1551   1.443       .  S
C1548      C1549   1.402       .  A
C1549      C1550   1.400   1_565  A
C1549      H1557   1.083       .  S
C1550      H1558   1.084       .  S
C1551      C1552   1.208       .  T
C1553      C1554   1.208       .  T
C1559      C1567   1.442       .  S
C1559      C1560   1.402       .  A
C1559      C1564   1.401       .  A
C1560      C1561   1.400       .  A
C1560      H1569   1.083       .  S
C1561      C1562   1.402       .  A
C1561      H1570   1.084       .  S
C1562      C1565   1.442       .  S
C1562      C1563   1.402       .  A
C1563      C1564   1.399       .  A
C1563      H1571   1.083       .  S
C1564      H1572   1.084       .  S
C1565      C1566   1.207       .  T
C1567      C1568   1.207       .  T
C1573      C1581   1.442       .  S
C1573      C1574   1.402       .  A
C1573      C1578   1.402       .  A
C1574      C1575   1.400       .  A
C1574      H1583   1.084       .  S
C1575      C1576   1.402       .  A
C1575      H1584   1.083       .  S
C1576      C1579   1.443       .  S
C1576      C1577   1.402       .  A
C1577      C1578   1.401       .  A
C1577      H1585   1.084       .  S
C1578      H1586   1.083       .  S
C1579      C1580   1.208       .  T
C1581      C1582   1.207       .  T
C1587      C1595   1.441       .  S
C1587      C1588   1.402       .  A
C1587      C1592   1.401       .  A
C1588      C1589   1.400       .  A
C1588      H1597   1.083       .  S
C1589      C1590   1.402       .  A
C1589      H1598   1.084       .  S
C1590      C1593   1.442       .  S
C1590      C1591   1.402       .  A
C1591      C1592   1.399       .  A
C1591      H1599   1.083       .  S
C1592      H1600   1.084       .  S
C1593      C1594   1.207       .  T
C1595      C1596   1.207       .  T
C1601      C1609   1.443       .  S
C1601      C1602   1.402       .  A
C1601      C1606   1.402       .  A
C1602      C1603   1.399       .  A
C1602      H1611   1.083       .  S
C1603      C1604   1.402       .  A
C1603      H1612   1.084       .  S
C1604      C1607   1.443       .  S
C1604      C1605   1.402       .  A
C1605      C1606   1.401       .  A
C1605      H1613   1.083       .  S
C1606      H1614   1.084       .  S
C1607      C1608   1.208       .  T
C1609      C1610   1.208       .  T
C1615      C1623   1.441       .  S
C1615      C1616   1.401       .  A
C1615      C1620   1.402       .  A
C1616      C1617   1.398       .  A
C1616      H1625   1.083       .  S
C1617      C1618   1.401       .  A
C1617      H1626   1.084       .  S
C1618      C1621   1.441       .  S
C1618      C1619   1.402       .  A
C1619      C1620   1.401       .  A
C1619      H1627   1.083       .  S
C1620      H1628   1.084       .  S
C1621      C1622   1.207       .  T
C1623      C1624   1.207       .  T
C1629      C1637   1.443       .  S
C1629      C1630   1.402       .  A
C1629      C1634   1.402       .  A
C1630      C1631   1.401       .  A
C1630      H1639   1.083       .  S
C1631      C1632   1.402       .  A
C1631      H1640   1.083       .  S
C1632      C1635   1.443       .  S
C1632      C1633   1.402       .  A
C1633      C1634   1.400       .  A
C1633      H1641   1.083       .  S
C1634      H1642   1.084       .  S
C1635      C1636   1.208       .  T
C1637      C1638   1.208       .  T
C1643      C1651   1.444       .  S
C1643      C1644   1.403       .  A
C1643      C1648   1.401       .  A
C1644      C1645   1.402   1_554  A
C1644      H1653   1.083       .  S
C1645      C1646   1.403       .  A
C1645      H1654   1.084       .  S
C1646      C1649   1.444       .  S
C1646      C1647   1.401       .  A
C1647      C1648   1.399   1_556  A
C1647      H1655   1.083       .  S
C1648      H1656   1.084       .  S
C1649      C1650   1.208       .  T
C1651      C1652   1.209       .  T
C1657      C1665   1.442       .  S
C1657      C1658   1.402       .  A
C1657      C1662   1.401       .  A
C1658      C1659   1.401       .  A
C1658      H1667   1.084       .  S
C1659      C1660   1.402       .  A
C1659      H1668   1.083       .  S
C1660      C1663   1.442       .  S
C1660      C1661   1.401       .  A
C1661      C1662   1.399       .  A
C1661      H1669   1.084       .  S
C1662      H1670   1.083       .  S
C1663      C1664   1.207       .  T
C1665      C1666   1.208       .  T
C1671      C1679   1.444       .  S
C1671      C1672   1.402       .  A
C1671      C1676   1.402       .  A
C1672      C1673   1.401   1_455  A
C1672      H1681   1.083       .  S
C1673      C1674   1.402       .  A
C1673      H1682   1.084       .  S
C1674      C1677   1.444       .  S
C1674      C1675   1.402       .  A
C1675      C1676   1.400   1_655  A
C1675      H1683   1.083       .  S
C1676      H1684   1.084       .  S
C1677      C1678   1.208       .  T
C1679      C1680   1.208       .  T
C1685      C1693   1.442       .  S
C1685      C1686   1.402       .  A
C1685      C1690   1.402       .  A
C1686      C1687   1.400   1_554  A
C1686      H1695   1.083       .  S
C1687      C1688   1.402       .  A
C1687      H1696   1.084       .  S
C1688      C1691   1.442       .  S
C1688      C1689   1.402       .  A
C1689      C1690   1.400   1_556  A
C1689      H1697   1.083       .  S
C1690      H1698   1.084       .  S
C1691      C1692   1.207       .  T
C1693      C1694   1.207       .  T
C1699      C1707   1.441       .  S
C1699      C1700   1.402       .  A
C1699      C1704   1.401       .  A
C1700      C1701   1.400       .  A
C1700      H1709   1.083       .  S
C1701      C1702   1.402       .  A
C1701      H1710   1.084       .  S
C1702      C1705   1.441       .  S
C1702      C1703   1.401       .  A
C1703      C1704   1.399       .  A
C1703      H1711   1.083       .  S
C1704      H1712   1.084       .  S
C1705      C1706   1.207       .  T
C1707      C1708   1.207       .  T
C1713      C1721   1.445       .  S
C1713      C1714   1.402       .  A
C1713      C1718   1.402       .  A
C1714      C1715   1.401       .  A
C1714      H1723   1.083       .  S
C1715      C1716   1.402       .  A
C1715      H1724   1.084       .  S
C1716      C1719   1.445       .  S
C1716      C1717   1.402       .  A
C1717      C1718   1.401       .  A
C1717      H1725   1.083       .  S
C1718      H1726   1.084       .  S
C1719      C1720   1.209       .  T
C1721      C1722   1.209       .  T
C1727      C1735   1.444       .  S
C1727      C1728   1.402       .  A
C1727      C1732   1.402       .  A
C1728      C1729   1.400       .  A
C1728      H1737   1.084       .  S
C1729      C1730   1.402       .  A
C1729      H1738   1.083       .  S
C1730      C1733   1.443       .  S
C1730      C1731   1.402       .  A
C1731      C1732   1.401       .  A
C1731      H1739   1.084       .  S
C1732      H1740   1.083       .  S
C1733      C1734   1.208       .  T
C1735      C1736   1.208       .  T
C1741      C1749   1.440       .  S
C1741      C1742   1.401       .  A
C1741      C1746   1.402       .  A
C1742      C1743   1.398   1_455  A
C1742      H1751   1.084       .  S
C1743      C1744   1.401       .  A
C1743      H1752   1.084       .  S
C1744      C1747   1.440       .  S
C1744      C1745   1.402       .  A
C1745      C1746   1.400   1_655  A
C1745      H1753   1.083       .  S
C1746      H1754   1.083       .  S
C1747      C1748   1.206       .  T
C1749      C1750   1.206       .  T
C1755      C1763   1.442       .  S
C1755      C1756   1.401       .  A
C1755      C1760   1.402       .  A
C1756      C1757   1.400       .  A
C1756      H1765   1.084       .  S
C1757      C1758   1.402       .  A
C1757      H1766   1.083       .  S
C1758      C1761   1.442       .  S
C1758      C1759   1.402       .  A
C1759      C1760   1.400       .  A
C1759      H1767   1.084       .  S
C1760      H1768   1.083       .  S
C1761      C1762   1.207       .  T
C1763      C1764   1.207       .  T
C1769      C1777   1.442       .  S
C1769      C1770   1.402       .  A
C1769      C1774   1.402       .  A
C1770      C1771   1.400       .  A
C1770      H1779   1.084       .  S
C1771      C1772   1.402       .  A
C1771      H1780   1.083       .  S
C1772      C1775   1.441       .  S
C1772      C1773   1.402       .  A
C1773      C1774   1.400       .  A
C1773      H1781   1.084       .  S
C1774      H1782   1.083       .  S
C1775      C1776   1.207       .  T
C1777      C1778   1.207       .  T
C1783      C1791   1.438       .  S
C1783      C1784   1.401       .  A
C1783      C1788   1.401       .  A
C1784      C1785   1.398       .  A
C1784      H1793   1.084       .  S
C1785      C1786   1.401       .  A
C1785      H1794   1.083       .  S
C1786      C1789   1.438       .  S
C1786      C1787   1.401       .  A
C1787      C1788   1.398       .  A
C1787      H1795   1.084       .  S
C1788      H1796   1.083       .  S
C1789      C1790   1.205       .  T
C1791      C1792   1.205       .  T
C1797      C1805   1.442       .  S
C1797      C1798   1.403       .  A
C1797      C1802   1.401       .  A
C1798      C1799   1.402       .  A
C1798      H1807   1.083       .  S
C1799      C1800   1.403       .  A
C1799      H1808   1.084       .  S
C1800      C1803   1.443       .  S
C1800      C1801   1.401       .  A
C1801      C1802   1.398       .  A
C1801      H1809   1.083       .  S
C1802      H1810   1.084       .  S
C1803      C1804   1.208       .  T
C1805      C1806   1.207       .  T
C1811      C1819   1.445       .  S
C1811      C1812   1.401       .  A
C1811      C1816   1.403       .  A
C1812      C1813   1.399       .  A
C1812      H1821   1.084       .  S
C1813      C1814   1.401       .  A
C1813      H1822   1.083       .  S
C1814      C1817   1.444       .  S
C1814      C1815   1.403       .  A
C1815      C1816   1.403       .  A
C1815      H1823   1.084       .  S
C1816      H1824   1.083       .  S
C1817      C1818   1.209       .  T
C1819      C1820   1.209       .  T
C1825      C1833   1.439       .  S
C1825      C1826   1.401       .  A
C1825      C1830   1.401       .  A
C1826      C1827   1.399       .  A
C1826      H1835   1.083       .  S
C1827      C1828   1.401       .  A
C1827      H1836   1.084       .  S
C1828      C1831   1.439       .  S
C1828      C1829   1.401       .  A
C1829      C1830   1.399       .  A
C1829      H1837   1.083       .  S
C1830      H1838   1.084       .  S
C1831      C1832   1.205       .  T
C1833      C1834   1.206       .  T
C1839      C1847   1.442       .  S
C1839      C1840   1.401       .  A
C1839      C1844   1.402       .  A
C1840      C1841   1.399       .  A
C1840      H1849   1.084       .  S
C1841      C1842   1.401       .  A
C1841      H1850   1.083       .  S
C1842      C1845   1.443       .  S
C1842      C1843   1.402       .  A
C1843      C1844   1.402       .  A
C1843      H1851   1.084       .  S
C1844      H1852   1.083       .  S
C1845      C1846   1.208       .  T
C1847      C1848   1.207       .  T
C1853      C1861   1.445       .  S
C1853      C1854   1.402       .  A
C1853      C1858   1.403       .  A
C1854      C1855   1.399   1_455  A
C1854      H1863   1.083       .  S
C1855      C1856   1.401       .  A
C1855      H1864   1.083       .  S
C1856      C1859   1.445       .  S
C1856      C1857   1.403       .  A
C1857      C1858   1.403   1_655  A
C1857      H1865   1.083       .  S
C1858      H1866   1.083       .  S
C1859      C1860   1.209       .  T
C1861      C1862   1.209       .  T
C1867      C1875   1.442       .  S
C1867      C1868   1.402       .  A
C1867      C1872   1.402       .  A
C1868      C1869   1.400   1_554  A
C1868      H1877   1.083       .  S
C1869      C1870   1.401       .  A
C1869      H1878   1.084       .  S
C1870      C1873   1.442       .  S
C1870      C1871   1.402       .  A
C1871      C1872   1.400   1_556  A
C1871      H1879   1.083       .  S
C1872      H1880   1.084       .  S
C1873      C1874   1.207       .  T
C1875      C1876   1.207       .  T
C1881      C1889   1.443       .  S
C1881      C1882   1.402       .  A
C1881      C1886   1.402       .  A
C1882      C1883   1.399       .  A
C1882      H1891   1.083       .  S
C1883      C1884   1.401       .  A
C1883      H1892   1.084       .  S
C1884      C1887   1.443       .  S
C1884      C1885   1.403       .  A
C1885      C1886   1.401       .  A
C1885      H1893   1.083       .  S
C1886      H1894   1.084       .  S
C1887      C1888   1.208       .  T
C1889      C1890   1.208       .  T
C1895      C1903   1.441       .  S
C1895      C1896   1.402       .  A
C1895      C1900   1.401       .  A
C1896      C1897   1.401       .  A
C1896      H1905   1.084       .  S
C1897      C1898   1.402       .  A
C1897      H1906   1.083       .  S
C1898      C1901   1.441       .  S
C1898      C1899   1.401       .  A
C1899      C1900   1.398       .  A
C1899      H1907   1.084       .  S
C1900      H1908   1.083       .  S
C1901      C1902   1.207       .  T
C1903      C1904   1.207       .  T
C1909      C1917   1.442       .  S
C1909      C1910   1.402       .  A
C1909      C1914   1.401       .  A
C1910      C1911   1.400   1_545  A
C1910      H1919   1.083       .  S
C1911      C1912   1.401       .  A
C1911      H1920   1.084       .  S
C1912      C1915   1.441       .  S
C1912      C1913   1.402       .  A
C1913      C1914   1.400   1_565  A
C1913      H1921   1.083       .  S
C1914      H1922   1.084       .  S
C1915      C1916   1.207       .  T
C1917      C1918   1.207       .  T
C1923      C1931   1.443       .  S
C1923      C1924   1.402       .  A
C1923      C1928   1.402       .  A
C1924      C1925   1.401   1_554  A
C1924      H1933   1.084       .  S
C1925      C1926   1.402       .  A
C1925      H1934   1.083       .  S
C1926      C1929   1.443       .  S
C1926      C1927   1.402       .  A
C1927      C1928   1.399   1_556  A
C1927      H1935   1.084       .  S
C1928      H1936   1.083       .  S
C1929      C1930   1.208       .  T
C1931      C1932   1.208       .  T
C1937      C1945   1.438       .  S
C1937      C1938   1.401       .  A
C1937      C1942   1.401       .  A
C1938      C1939   1.398       .  A
C1938      H1947   1.083       .  S
C1939      C1940   1.401       .  A
C1939      H1948   1.084       .  S
C1940      C1943   1.438       .  S
C1940      C1941   1.401       .  A
C1941      C1942   1.399       .  A
C1941      H1949   1.083       .  S
C1942      H1950   1.084       .  S
C1943      C1944   1.205       .  T
C1945      C1946   1.205       .  T
C1951      C1959   1.441       .  S
C1951      C1952   1.401       .  A
C1951      C1956   1.402       .  A
C1952      C1953   1.399       .  A
C1952      H1961   1.084       .  S
C1953      C1954   1.401       .  A
C1953      H1962   1.083       .  S
C1954      C1957   1.441       .  S
C1954      C1955   1.402       .  A
C1955      C1956   1.400       .  A
C1955      H1963   1.084       .  S
C1956      H1964   1.083       .  S
C1957      C1958   1.207       .  T
C1959      C1960   1.207       .  T
C1965      C1973   1.444       .  S
C1965      C1966   1.402       .  A
C1965      C1970   1.402       .  A
C1966      C1967   1.401       .  A
C1966      H1975   1.083       .  S
C1967      C1968   1.402       .  A
C1967      H1976   1.083       .  S
C1968      C1971   1.443       .  S
C1968      C1969   1.402       .  A
C1969      C1970   1.400       .  A
C1969      H1977   1.083       .  S
C1970      H1978   1.083       .  S
C1971      C1972   1.208       .  T
C1973      C1974   1.209       .  T
C1979      C1987   1.446       .  S
C1979      C1980   1.402       .  A
C1979      C1984   1.402       .  A
C1980      C1981   1.401   1_455  A
C1980      H1989   1.083       .  S
C1981      C1982   1.403       .  A
C1981      H1990   1.083       .  S
C1982      C1985   1.446       .  S
C1982      C1983   1.402       .  A
C1983      C1984   1.402   1_655  A
C1983      H1991   1.083       .  S
C1984      H1992   1.083       .  S
C1985      C1986   1.210       .  T
C1987      C1988   1.210       .  T
C1993      C2001   1.441       .  S
C1993      C1994   1.402       .  A
C1993      C1998   1.401       .  A
C1994      C1995   1.401   1_565  A
C1994      H2003   1.083       .  S
C1995      C1996   1.402       .  A
C1995      H2004   1.083       .  S
C1996      C1999   1.441       .  S
C1996      C1997   1.401       .  A
C1997      C1998   1.398   1_545  A
C1997      H2005   1.084       .  S
C1998      H2006   1.083       .  S
C1999      C2000   1.206       .  T
C2001      C2002   1.207       .  T
C2007      C2015   1.447       .  S
C2007      C2008   1.402       .  A
C2007      C2012   1.403       .  A
C2008      C2009   1.401       .  A
C2008      H2017   1.084       .  S
C2009      C2010   1.403       .  A
C2009      H2018   1.083       .  S
C2010      C2013   1.447       .  S
C2010      C2011   1.403       .  A
C2011      C2012   1.402       .  A
C2011      H2019   1.084       .  S
C2012      H2020   1.083       .  S
C2013      C2014   1.210       .  T
C2015      C2016   1.210       .  T
C2021      C2029   1.440       .  S
C2021      C2022   1.401       .  A
C2021      C2026   1.402       .  A
C2022      C2023   1.399       .  A
C2022      H2031   1.083       .  S
C2023      C2024   1.401       .  A
C2023      H2032   1.084       .  S
C2024      C2027   1.440       .  S
C2024      C2025   1.402       .  A
C2025      C2026   1.400       .  A
C2025      H2033   1.083       .  S
C2026      H2034   1.084       .  S
C2027      C2028   1.206       .  T
C2029      C2030   1.206       .  T
C2035      C2043   1.440       .  S
C2035      C2036   1.401       .  A
C2035      C2040   1.402       .  A
C2036      C2037   1.399       .  A
C2036      H2045   1.084       .  S
C2037      C2038   1.401       .  A
C2037      H2046   1.083       .  S
C2038      C2041   1.441       .  S
C2038      C2039   1.402       .  A
C2039      C2040   1.400       .  A
C2039      H2047   1.084       .  S
C2040      H2048   1.083       .  S
C2041      C2042   1.206       .  T
C2043      C2044   1.206       .  T
