geometry optimzed in LAMMPS
_audit_creation_date              2020-11-30 
_audit_creation_method            'lammps2cif' 
_symmetry_space_group_name_H-M    'P1' 
_symmetry_Int_Tables_number       1 
_symmetry_cell_setting            triclinic 
loop_ 
_symmetry_equiv_pos_as_xyz 
  x,y,z 
_cell_length_a                    55.05025049 
_cell_length_b                    55.08063265609336 
_cell_length_c                    74.89634902934925 
_cell_angle_alpha                 90.04469828937724 
_cell_angle_beta                  89.71613699047391 
_cell_angle_gamma                 89.34098100817272 
loop_ 
_atom_site_label 
_atom_site_type_symbol 
_atom_site_fract_x 
_atom_site_fract_y 
_atom_site_fract_z 
_atom_site_charge 
O1          O  0.36827629  0.76493174  0.92721289    -0.57200
C2          C  0.39213877  0.75814830  0.87316929     0.75500
O3          O  0.40674436  0.69683405  0.90213022    -0.58300
C4          C  0.37016298  0.75084612  0.94058814     0.75400
C5          C  0.33562355  0.70505936  0.90064914     0.77800
Cd6        Cd  0.37905152  0.73206205  0.90533097     1.37500
O7          O  0.39768799  0.76595571  0.88848222    -0.57200
O8          O  0.33477856  0.72804937  0.90160554    -0.56000
C9          C  0.42339132  0.70660042  0.91114972     0.77800
O10         O  0.35647276  0.69516945  0.90134339    -0.58300
O11         O  0.37948894  0.73917906  0.87279109    -0.56800
O12         O  0.37517099  0.72886428  0.93727837    -0.56800
O13         O  0.41920379  0.72753866  0.91736378    -0.56000
O14         O  0.64831915  0.71155888  0.95046346    -0.57200
C15         C  0.65393947  0.73964323  0.88396596     0.75500
O16         O  0.66971634  0.67404294  0.91757138    -0.58300
C17         C  0.65577670  0.73245014  0.95455254     0.75400
C18         C  0.60115848  0.70303364  0.91939116     0.77800
Cd19       Cd  0.65179764  0.71492566  0.91829384     1.37500
O20         O  0.64924740  0.75101853  0.89832784    -0.57200
O21         O  0.60971823  0.72270941  0.92508071    -0.56000
C22         C  0.69159731  0.68101821  0.91788921     0.77800
O23         O  0.61651381  0.68802228  0.91296201    -0.58300
O24         O  0.65849917  0.71723861  0.88554774    -0.56800
O25         O  0.66274775  0.74577417  0.94167959    -0.56800
O26         O  0.69481734  0.70373579  0.91865109    -0.56000
O27         O  0.39995083  0.77558199  0.12689527    -0.57200
C28         C  0.39015093  0.75827257  0.07200362     0.75500
O29         O  0.42130736  0.70442545  0.10802885    -0.58300
C30         C  0.39280204  0.76602622  0.14137072     0.75400
C31         C  0.34857805  0.71362255  0.10973640     0.77800
Cd32       Cd  0.39286741  0.73975137  0.10815981     1.37500
O33         O  0.38395112  0.77171229  0.08504006    -0.57200
O34         O  0.34877351  0.73656666  0.10907328    -0.56000
C35         C  0.44025279  0.71684164  0.11040907     0.77800
O36         O  0.36899152  0.70274344  0.10972803    -0.58300
O37         O  0.39809654  0.73738809  0.07597280    -0.56800
O38         O  0.38464590  0.74469996  0.14036914    -0.56800
O39         O  0.43683786  0.73946002  0.11221255    -0.56000
O40         O  0.65165348  0.74760679  0.14031139    -0.57200
C41         C  0.66569248  0.72605760  0.08729876     0.75500
O42         O  0.68423745  0.67302970  0.12850047    -0.58300
C43         C  0.65315283  0.73808709  0.15566442     0.75400
C44         C  0.61384171  0.68742027  0.12002315     0.77800
Cd45       Cd  0.66036925  0.70963928  0.12359544     1.37500
O46         O  0.66600195  0.74122528  0.10009712    -0.57200
O47         O  0.61919697  0.70732051  0.11276333    -0.56000
C48         C  0.70479548  0.68301389  0.12748926     0.77800
O49         O  0.63021422  0.67709476  0.12919144    -0.58300
O50         O  0.66394182  0.70392921  0.09158617    -0.56800
O51         O  0.65904687  0.71590004  0.15620544    -0.56800
O52         O  0.70496889  0.70570322  0.12475954    -0.56000
O53         O  0.71907582  0.00542988  0.61346745    -0.57200
C54         C  0.71445758  0.99216463  0.67124969     0.75500
O55         O  0.77564175  0.96141996  0.64654624    -0.58300
C56         C  0.73567050  0.00159217  0.60187375     0.75400
C57         C  0.77621963  0.03592732  0.64486968     0.77800
Cd58       Cd  0.74581707  0.99459666  0.63972237     1.37500
O59         O  0.70569445  0.98990984  0.65570093    -0.57200
O60         O  0.75393926  0.03816726  0.64095697    -0.56000
C61         C  0.76416260  0.94571909  0.63769164     0.77800
O62         O  0.78424315  0.01441743  0.64662542    -0.58300
O63         O  0.73684077  0.99670107  0.67201349    -0.56800
O64         O  0.75607570  0.99506728  0.60801332    -0.56800
O65         O  0.74472096  0.95262820  0.63030024    -0.56000
O66         O  0.67164218  0.71611112  0.59842381    -0.57200
C67         C  0.67441649  0.73282136  0.65525216     0.75500
O68         O  0.74071063  0.71067967  0.62517602    -0.58300
C69         C  0.68285748  0.72618597  0.58564699     0.75400
C70         C  0.72646622  0.77549919  0.62323967     0.77800
Cd71       Cd  0.70133160  0.73015689  0.62189074     1.37500
O72         O  0.66745928  0.74417493  0.64144959    -0.57200
O73         O  0.70376324  0.77401845  0.62570547    -0.56000
C74         C  0.73283334  0.68919406  0.62506063     0.77800
O75         O  0.73770120  0.75566545  0.62049355    -0.58300
O76         O  0.69279906  0.71911142  0.65335491    -0.56800
O77         O  0.70123820  0.73826884  0.58993075    -0.56800
O78         O  0.71010955  0.68655824  0.62353168    -0.56000
O79         O  0.70373548  0.99461269  0.41537004    -0.57200
C80         C  0.73205039  0.99973234  0.46674948     0.75500
O81         O  0.73351363  0.95067281  0.43282292    -0.58300
C82         C  0.71120576  0.99415619  0.39934821     0.75400
C83         C  0.77975516  0.02870121  0.42240705     0.77800
Cd84       Cd  0.74392302  0.99273817  0.42926416     1.37500
O85         O  0.74979873  0.98694614  0.46129838    -0.57200
O86         O  0.75774418  0.03438394  0.42531949    -0.56000
C87         C  0.75359693  0.94121968  0.42822823     0.77800
O88         O  0.78516237  0.00630054  0.42286744    -0.58300
O89         O  0.71957739  0.01037416  0.45483084    -0.56800
O90         O  0.73392928  0.99455679  0.39701869    -0.56800
O91         O  0.77001680  0.95618923  0.42411854    -0.56000
O92         O  0.66581930  0.73603751  0.40124632    -0.57200
C93         C  0.69013155  0.71533517  0.45234996     0.75500
O94         O  0.74084196  0.69831485  0.41026205    -0.58300
C95         C  0.67372501  0.73470757  0.38536309     0.75400
C96         C  0.73324372  0.76573710  0.41876341     0.77800
Cd97       Cd  0.70467428  0.72260422  0.41555679     1.37500
O98         O  0.67488194  0.71247142  0.43986620    -0.57200
O99         O  0.71365752  0.76292064  0.42736357    -0.56000
C100        C  0.73063082  0.67789745  0.41048684     0.77800
O101        O  0.73955707  0.74872341  0.40831765    -0.58300
O102        O  0.71120744  0.72147390  0.44754330    -0.56800
O103        O  0.69503770  0.72638526  0.38343884    -0.56800
O104        O  0.70775900  0.67802324  0.41236307    -0.56000
C105        C  0.40987185  0.77883609  0.69460174     0.87100
C106        C  0.41193878  0.80655801  0.69641267    -0.53100
C107        C  0.42153241  0.81790166  0.68192258     0.10100
C108        C  0.42868646  0.80050389  0.66660111     0.21000
C109        C  0.39580945  0.77484076  0.67720662    -0.53800
C110        C  0.40563777  0.78602188  0.66257860     0.10200
C111        C  0.43638129  0.77122132  0.69018948    -0.53400
C112        C  0.44605564  0.78209914  0.67534955     0.10700
H113        H  0.40706423  0.81644794  0.70848794     0.15300
H114        H  0.43636144  0.80974055  0.65471713     0.01000
H115        H  0.37933448  0.76421462  0.67659684     0.15600
H116        H  0.44757586  0.75966985  0.69851822     0.15300
C117        C  0.44366885  0.03785869  0.71135570     0.87100
C118        C  0.47127215  0.04010212  0.70883003    -0.53100
C119        C  0.48027973  0.02935758  0.69382280     0.10100
C120        C  0.46077866  0.01724781  0.68225248     0.21000
C121        C  0.43259718  0.04792182  0.69404073    -0.53800
C122        C  0.44157477  0.03725790  0.67879258     0.10200
C123        C  0.44001841  0.01008366  0.71033913    -0.53400
C124        C  0.44832332  0.99910681  0.69500247     0.10700
H125        H  0.48350993  0.04704510  0.71881603     0.15300
H126        H  0.46794257  0.00892577  0.66978904     0.01000
H127        H  0.41857156  0.06194404  0.69391716     0.15600
H128        H  0.43210503  0.99987450  0.72125759     0.15300
C129        C  0.65546442  0.73220121  0.70496419     0.87100
C130        C  0.62819733  0.73147038  0.70031157    -0.53100
C131        C  0.62193514  0.74405943  0.68530696     0.10100
C132        C  0.64345810  0.75654092  0.67611871     0.21000
C133        C  0.66860662  0.72351181  0.68786445    -0.53800
C134        C  0.66238046  0.73628104  0.67281268     0.10200
C135        C  0.66032508  0.75976397  0.70582944    -0.53400
C136        C  0.65450071  0.77257553  0.69075619     0.10700
H137        H  0.61424585  0.72389170  0.70874531     0.15300
H138        H  0.63853565  0.76667299  0.66384619     0.01000
H139        H  0.68210193  0.70897847  0.68779122     0.15600
H140        H  0.66748744  0.76852266  0.71765409     0.15300
C141        C  0.69007239  0.98944567  0.71986573     0.87100
C142        C  0.68728569  0.96190926  0.71813026    -0.53100
C143        C  0.67969938  0.95400417  0.70184163     0.10100
C144        C  0.67575970  0.97471554  0.68822090     0.21000
C145        C  0.70722172  0.99650840  0.70425575    -0.53800
C146        C  0.69988990  0.98857095  0.68776700     0.10200
C147        C  0.66567517  0.00038963  0.71356959    -0.53400
C148        C  0.65775877  0.99239901  0.69733733     0.10700
H149        H  0.69096927  0.94955920  0.72912048     0.15300
H150        H  0.66978052  0.96850761  0.67487181     0.01000
H151        H  0.72305511  0.00780565  0.70568683     0.15600
H152        H  0.65544881  0.01371495  0.72127129     0.15300
C153        C  0.40393662  0.77814193  0.82455343     0.87100
C154        C  0.43145716  0.77770958  0.82821814    -0.53100
C155        C  0.43849509  0.78528691  0.84474094     0.10100
C156        C  0.41651601  0.79290481  0.85645952     0.21000
C157        C  0.39410582  0.76221117  0.83987841    -0.53800
C158        C  0.40006372  0.77039146  0.85659811     0.10200
C159        C  0.39494531  0.80360399  0.82932843    -0.53400
C160        C  0.40221646  0.81219196  0.84547706     0.10700
H161        H  0.44446998  0.77154049  0.81824494     0.15300
H162        H  0.42170872  0.79871835  0.87003134     0.01000
H163        H  0.38458858  0.74533352  0.83810731     0.15600
H164        H  0.38309810  0.81363668  0.82042303     0.15300
C165        C  0.44077957  0.01777213  0.84127473     0.87100
C166        C  0.43339469  0.99143143  0.84491360    -0.53100
C167        C  0.44030184  0.98278833  0.86114138     0.10100
C168        C  0.45310519  0.00128987  0.87295382     0.21000
C169        C  0.42867800  0.03148824  0.85726510    -0.53800
C170        C  0.43545949  0.02282279  0.87369031     0.10200
C171        C  0.46810393  0.01843669  0.84525073    -0.53400
C172        C  0.47470152  0.01043091  0.86187400     0.10700
H173        H  0.42330986  0.98044903  0.83551706     0.15300
H174        H  0.45784456  0.99441973  0.88639664     0.01000
H175        H  0.41492610  0.04554813  0.85623668     0.15600
H176        H  0.48120601  0.02516248  0.83561154     0.15300
C177        C  0.69604237  0.99844667  0.85097031     0.87100
C178        C  0.66873311  0.00457809  0.84999626    -0.53100
C179        C  0.65589868  0.99898857  0.86497655     0.10100
C180        C  0.67117463  0.98708083  0.87978391     0.21000
C181        C  0.70473962  0.01110086  0.86825568    -0.53800
C182        C  0.69174368  0.00485193  0.88330891     0.10200
C183        C  0.69584136  0.97111513  0.85556776    -0.53400
C184        C  0.68360437  0.96527528  0.87083101     0.10700
H185        H  0.66001826  0.01230888  0.83829346     0.15300
H186        H  0.66054815  0.98248474  0.89192392     0.01000
H187        H  0.71956178  0.02391947  0.86848714     0.15600
H188        H  0.70308440  0.95685244  0.84708710     0.15300
C189        C  0.65343948  0.75557348  0.83348375     0.87100
C190        C  0.66687899  0.77939421  0.83675294    -0.53100
C191        C  0.66096978  0.79100708  0.85230526     0.10100
C192        C  0.64223742  0.77728083  0.86371744     0.21000
C193        C  0.65880980  0.74010587  0.85039619    -0.53800
C194        C  0.65311369  0.75165631  0.86623400     0.10200
C195        C  0.62615257  0.76151118  0.83607370    -0.53400
C196        C  0.62042468  0.77335548  0.85147569     0.10700
H197        H  0.68025065  0.78626190  0.82740318     0.15300
H198        H  0.63707828  0.78661496  0.87635034     0.01000
H199        H  0.66447017  0.72122617  0.85010349     0.15600
H200        H  0.61220442  0.75601978  0.82673721     0.15300
O201        O  0.40597554  0.02635390  0.94658488    -0.57200
C202        C  0.42829630  0.03391370  0.89084888     0.75500
O203        O  0.40604816  0.09817228  0.91986640    -0.58300
C204        C  0.40715853  0.04063059  0.95989008     0.75400
C205        C  0.47167675  0.06811324  0.93177879     0.77800
Cd206      Cd  0.42175348  0.05743501  0.92489138     1.37500
O207        O  0.42843111  0.02190648  0.90529216    -0.57200
O208        O  0.46251417  0.04737508  0.93372384    -0.56000
C209        C  0.38425176  0.09163872  0.91761805     0.77800
O210        O  0.45726657  0.08487696  0.92680835    -0.58300
O211        O  0.42332065  0.05626478  0.89204391    -0.56800
O212        O  0.41394141  0.06202014  0.95656599    -0.56800
O213        O  0.37994568  0.06912502  0.91881589    -0.56000
O214        O  0.70792111  0.00856585  0.96073825    -0.57200
C215        C  0.69525250  0.01524353  0.90134543     0.75500
O216        O  0.66774833  0.07307943  0.93594135    -0.58300
C217        C  0.70668120  0.02485292  0.97278795     0.75400
C218        C  0.73881039  0.06638090  0.93061576     0.77800
Cd219      Cd  0.69700881  0.03857372  0.93611237     1.37500
O220        O  0.68779513  0.00461499  0.91536987    -0.57200
O221        O  0.74065612  0.04373813  0.93344203    -0.56000
C222        C  0.64963424  0.06017192  0.93993251     0.77800
O223        O  0.71767370  0.07578639  0.93101944    -0.58300
O224        O  0.70454640  0.03584643  0.90350706    -0.56800
O225        O  0.70067558  0.04586368  0.96762438    -0.56800
O226        O  0.65342103  0.03752162  0.94118541    -0.56000
O227        O  0.41151679  0.03660157  0.10431991    -0.57200
C228        C  0.42051883  0.04669055  0.15938486     0.75500
O229        O  0.45883430  0.09981029  0.12123872    -0.58300
C230        C  0.42083850  0.04572253  0.09036913     0.75400
C231        C  0.38828183  0.10627916  0.12250543     0.77800
Cd232      Cd  0.42576237  0.06979903  0.12466746     1.37500
O233        O  0.42796959  0.03529539  0.14569185    -0.57200
O234        O  0.38444594  0.08445637  0.11812024    -0.56000
C235        C  0.47597556  0.08501436  0.12454818     0.77800
O236        O  0.40936724  0.11104980  0.12810420    -0.58300
O237        O  0.41409403  0.06853828  0.15696266    -0.56800
O238        O  0.43245902  0.06511476  0.09263222    -0.56800
O239        O  0.46963158  0.06356352  0.12812258    -0.56000
O240        O  0.71205727  0.02694991  0.11932859    -0.57200
C241        C  0.68450663  0.02414355  0.17197315     0.75500
O242        O  0.71603186  0.09136389  0.15273103    -0.58300
C243        C  0.69953891  0.03534141  0.10652493     0.75400
C244        C  0.65139388  0.08617373  0.13912343     0.77800
Cd245      Cd  0.69432098  0.05592802  0.14210689     1.37500
O246        O  0.67802783  0.01930848  0.15617760    -0.57200
O247        O  0.65239367  0.06797240  0.14938720    -0.56000
C248        C  0.73653467  0.08482981  0.14660113     0.77800
O249        O  0.67073734  0.09134152  0.13086133    -0.58300
O250        O  0.69740365  0.04280454  0.17393258    -0.56800
O251        O  0.68421602  0.05166676  0.11063450    -0.56800
O252        O  0.73774770  0.06393089  0.13964714    -0.56000
C253        C  0.67956183  0.98721038  0.35364934     0.87100
C254        C  0.65758223  0.00241855  0.35977192    -0.53100
C255        C  0.65180243  0.00077195  0.37754319     0.10100
C256        C  0.66822295  0.98271934  0.38756282     0.21000
C257        C  0.70030876  0.99397231  0.36662101    -0.53800
C258        C  0.69412407  0.99175893  0.38435522     0.10200
C259        C  0.67405561  0.96117557  0.35958205    -0.53400
C260        C  0.66707972  0.95897785  0.37688116     0.10700
H261        H  0.64707039  0.01331205  0.35044600     0.15300
H262        H  0.66415903  0.98042229  0.40190322     0.01000
H263        H  0.71854309  0.99850027  0.36231158     0.15600
H264        H  0.67674107  0.94524812  0.35123755     0.15300
C265        C  0.64915608  0.75084074  0.33853536     0.87100
C266        C  0.65224348  0.77771556  0.34314294    -0.53100
C267        C  0.64629059  0.78414720  0.36026382     0.10100
C268        C  0.63840158  0.76227003  0.37175420     0.21000
C269        C  0.66496117  0.73744964  0.35253325    -0.53800
C270        C  0.65950105  0.74363040  0.36992571     0.10200
C271        C  0.62338920  0.74408298  0.34466276    -0.53400
C272        C  0.61737372  0.75077586  0.36160362     0.10700
H273        H  0.65922834  0.79050533  0.33343258     0.15300
H274        H  0.63333330  0.76684919  0.38570702     0.01000
H275        H  0.67866867  0.72385827  0.34931912     0.15600
H276        H  0.61067521  0.73446535  0.33625856     0.15300
C277        C  0.41141510  0.78054268  0.32056158     0.87100
C278        C  0.43461951  0.76542043  0.32371068    -0.53100
C279        C  0.44567246  0.76932276  0.33973111     0.10100
C280        C  0.43203369  0.78791859  0.35156928     0.21000
C281        C  0.39497143  0.77481282  0.33689356    -0.53800
C282        C  0.40598372  0.77831507  0.35310578     0.10200
C283        C  0.41822295  0.80718279  0.32433987    -0.53400
C284        C  0.42944716  0.81092052  0.34019755     0.10700
H285        H  0.44136357  0.75235476  0.31398557     0.15300
H286        H  0.44086995  0.79151893  0.36458861     0.01000
H287        H  0.37583704  0.77074909  0.33609398     0.15600
H288        H  0.41352063  0.82217753  0.31555103     0.15300
C289        C  0.45148533  0.02946278  0.33768045     0.87100
C290        C  0.44852718  0.00174704  0.33837005    -0.53100
C291        C  0.45448735  0.99086628  0.35419082     0.10100
C292        C  0.46351764  0.00918887  0.36824639     0.21000
C293        C  0.43595131  0.03801231  0.35401817    -0.53800
C294        C  0.44272771  0.02777159  0.37000717     0.10200
C295        C  0.47779279  0.03370912  0.34327154    -0.53400
C296        C  0.48409582  0.02323124  0.35907972     0.10700
H297        H  0.44186149  0.99147729  0.32706843     0.15300
H298        H  0.46870731  0.00096425  0.38119952     0.01000
H299        H  0.42009156  0.04969636  0.35327309     0.15600
H300        H  0.49053395  0.04404776  0.33527559     0.15300
C301        C  0.66619676  0.99931656  0.21838275     0.87100
C302        C  0.66964397  0.97287638  0.21267408    -0.53100
C303        C  0.66398301  0.96822962  0.19534019     0.10100
C304        C  0.65565720  0.99077554  0.18484233     0.21000
C305        C  0.68135173  0.01417114  0.20483077    -0.53800
C306        C  0.67584566  0.00953733  0.18726539     0.10200
C307        C  0.64003097  0.00609312  0.21288643    -0.53400
C308        C  0.63413279  0.00135614  0.19554736     0.10700
H309        H  0.67539922  0.95870079  0.22186152     0.15300
H310        H  0.65150174  0.98717122  0.17064697     0.01000
H311        H  0.69405916  0.02809578  0.20875704     0.15600
H312        H  0.62731750  0.01522556  0.22166218     0.15300
C313        C  0.64776766  0.76321039  0.20370264     0.87100
C314        C  0.62005424  0.76427936  0.20212405    -0.53100
C315        C  0.61141924  0.77087006  0.18573784     0.10100
C316        C  0.63177259  0.77515798  0.17186505     0.21000
C317        C  0.65603908  0.74568916  0.18863972    -0.53800
C318        C  0.64751788  0.75193437  0.17205027     0.10200
C319        C  0.65680328  0.78778021  0.19650452    -0.53400
C320        C  0.64809403  0.79438126  0.18013475     0.10700
H321        H  0.60819610  0.76010152  0.21330651     0.15300
H322        H  0.62529673  0.78012386  0.15836182     0.01000
H323        H  0.66836227  0.73043238  0.19061624     0.15600
H324        H  0.67003861  0.79874737  0.20333238     0.15300
C325        C  0.39189606  0.78587148  0.19072127     0.87100
C326        C  0.38532402  0.81236816  0.18578743    -0.53100
C327        C  0.39500096  0.82044491  0.16992077     0.10100
C328        C  0.41113706  0.80108691  0.16070603     0.21000
C329        C  0.38496417  0.77076662  0.17426263    -0.53800
C330        C  0.39498622  0.77878932  0.15862109     0.10200
C331        C  0.41984172  0.78644094  0.19056152    -0.53400
C332        C  0.42985222  0.79380490  0.17492739     0.10700
H333        H  0.37627294  0.82481438  0.19488819     0.15300
H334        H  0.41934885  0.80645461  0.14785486     0.01000
H335        H  0.37365213  0.75477703  0.17504034     0.15600
H336        H  0.43103366  0.78107106  0.20182810     0.15300
C337        C  0.41966804  0.03246382  0.20999214     0.87100
C338        C  0.44690771  0.02569608  0.20856896    -0.53100
C339        C  0.45361684  0.01479997  0.19304380     0.10100
C340        C  0.43247436  0.01016594  0.18037594     0.21000
C341        C  0.41417145  0.04704299  0.19281922    -0.53800
C342        C  0.42089111  0.03532914  0.17733155     0.10200
C343        C  0.40719732  0.00778780  0.20703458    -0.53400
C344        C  0.41390188  0.99611186  0.19164726     0.10700
H345        H  0.46018567  0.03004421  0.21873739     0.15300
H346        H  0.43835597  0.00068030  0.16796989     0.01000
H347        H  0.40659549  0.06533116  0.19299474     0.15600
H348        H  0.39523128  0.99913887  0.21645037     0.15300
O349        O  0.42318062  0.02939633  0.59812431    -0.57200
C350        C  0.43210318  0.04284019  0.66072553     0.75500
O351        O  0.37089561  0.07101281  0.62517487    -0.58300
C352        C  0.43461580  0.04702494  0.59155115     0.75400
C353        C  0.37511850  0.01012932  0.62494476     0.77800
Cd354      Cd  0.40911368  0.04916695  0.62604598     1.37500
O355        O  0.44100506  0.03322824  0.64675056    -0.57200
O356        O  0.37110079  0.02985016  0.61680367    -0.56000
C357        C  0.37940933  0.09218643  0.62590340     0.77800
O358        O  0.39449478  0.00884450  0.63394168    -0.58300
O359        O  0.41399969  0.05677765  0.65846801    -0.56800
O360        O  0.43648512  0.06527862  0.60173505    -0.56800
O361        O  0.40228951  0.09393342  0.62720087    -0.56000
O362        O  0.39645332  0.76816401  0.58732264    -0.57200
C363        C  0.39416821  0.78531415  0.64478487     0.75500
O364        O  0.34010924  0.82168041  0.61075555    -0.58300
C365        C  0.38274200  0.77483646  0.57460251     0.75400
C366        C  0.33315843  0.75083032  0.61710201     0.77800
Cd367      Cd  0.36889336  0.78685868  0.61101180     1.37500
O368        O  0.40549668  0.79055095  0.63051826    -0.57200
O369        O  0.35541625  0.74538519  0.61501293    -0.56000
C370        C  0.35644981  0.83765574  0.61011037     0.77800
O371        O  0.32731442  0.77309481  0.61586679    -0.58300
O372        O  0.37206678  0.77992476  0.64315891    -0.56800
O373        O  0.36444031  0.78754401  0.57897094    -0.56800
O374        O  0.37809705  0.82968352  0.60993580    -0.56000
O375        O  0.43479928  0.03938215  0.44555471    -0.57200
C376        C  0.43050938  0.03309336  0.38733987     0.75500
O377        O  0.36420800  0.02332653  0.41500627    -0.58300
C378        C  0.41970811  0.04322041  0.45816599     0.75400
C379        C  0.38506893  0.08912136  0.41565501     0.77800
Cd380      Cd  0.40402623  0.04180199  0.42074554     1.37500
O381        O  0.43773829  0.02405488  0.40197985    -0.57200
O382        O  0.40737544  0.08627863  0.41941363    -0.56000
C383        C  0.37095342  0.00241933  0.41994607     0.77800
O384        O  0.37208141  0.07034684  0.41496220    -0.58300
O385        O  0.41212176  0.04687791  0.38832135    -0.56800
O386        O  0.39812909  0.04716377  0.45316135    -0.56800
O387        O  0.39237144  0.00010098  0.42571416    -0.56000
O388        O  0.39528175  0.76250678  0.42843913    -0.57200
C389        C  0.39314577  0.77651482  0.37047884     0.75500
O390        O  0.32556626  0.76570502  0.40172574    -0.58300
C391        C  0.38314793  0.77263556  0.44091964     0.75400
C392        C  0.35635101  0.82863089  0.40475609     0.77800
Cd393      Cd  0.36733706  0.77832502  0.40416521     1.37500
O394        O  0.40396118  0.78010172  0.38513991    -0.57200
O395        O  0.37745200  0.82012363  0.40202240    -0.56000
C396        C  0.33067114  0.74326812  0.40259975     0.77800
O397        O  0.33936932  0.81339181  0.40596332    -0.58300
O398        O  0.37065204  0.77223280  0.37147211    -0.56800
O399        O  0.36466034  0.78463367  0.43613757    -0.56800
O400        O  0.35289658  0.73710470  0.40331309    -0.56000
O401        O  0.91944719  0.23440706  0.94158114    -0.57200
C402        C  0.91092645  0.25050384  0.88528348     0.75500
O403        O  0.84959304  0.21913089  0.91633066    -0.58300
C404        C  0.90488218  0.23350509  0.95478942     0.75400
C405        C  0.86238452  0.28757457  0.92519265     0.77800
Cd406      Cd  0.88635101  0.24190891  0.91911455     1.37500
O407        O  0.92077623  0.25485553  0.90018247    -0.57200
O408        O  0.88453028  0.28374047  0.92864727    -0.56000
C409        C  0.85969113  0.19840454  0.91740954     0.77800
O410        O  0.85091836  0.27020942  0.91821388    -0.58300
O411        O  0.89046011  0.24038872  0.88587546    -0.56800
O412        O  0.88259473  0.23600621  0.95123975    -0.56800
O413        O  0.88272049  0.19763893  0.91775319    -0.56000
O414        O  0.89309336  0.53259958  0.95018963    -0.57200
C415        C  0.88526537  0.51769166  0.89455636     0.75500
O416        O  0.83515609  0.48087642  0.92682091    -0.58300
C417        C  0.87962532  0.53045575  0.96389028     0.75400
C418        C  0.82472829  0.55365319  0.92512027     0.77800
Cd419      Cd  0.86144522  0.51722986  0.92891346     1.37500
O420        O  0.89660239  0.51280100  0.90881118    -0.57200
O421        O  0.84711761  0.55872011  0.92442873    -0.56000
C422        C  0.85196790  0.46590482  0.93067198     0.77800
O423        O  0.81938647  0.53157138  0.92769742    -0.58300
O424        O  0.86330201  0.52413446  0.89622644    -0.56800
O425        O  0.85851907  0.52250042  0.96116022    -0.56800
O426        O  0.87240400  0.47491225  0.93413085    -0.56000
O427        O  0.93075395  0.23517320  0.10009643    -0.57200
C428        C  0.92614624  0.24721979  0.15943639     0.75500
O429        O  0.86748338  0.27368344  0.12571100    -0.58300
C430        C  0.91467696  0.23869603  0.08818271     0.75400
C431        C  0.87153188  0.20348448  0.13107761     0.77800
Cd432      Cd  0.90129207  0.24417211  0.12543439     1.37500
O433        O  0.93662023  0.25386845  0.14514116    -0.57200
O434        O  0.89333542  0.20048876  0.12586659    -0.56000
C435        C  0.88060291  0.29211424  0.12329945     0.77800
O436        O  0.86381024  0.22503000  0.13327013    -0.58300
O437        O  0.90557895  0.23768851  0.15768452    -0.56800
O438        O  0.89344837  0.24318771  0.09381757    -0.56800
O439        O  0.90317789  0.28784489  0.12247658    -0.56000
O440        O  0.89941568  0.52988558  0.10840132    -0.57200
C441        C  0.89442933  0.51035170  0.16388750     0.75500
O442        O  0.82851988  0.53355983  0.13000288    -0.58300
C443        C  0.88868201  0.52078565  0.09504377     0.75400
C444        C  0.84938687  0.46675797  0.12862714     0.77800
Cd445      Cd  0.86859177  0.51448185  0.13043956     1.37500
O446        O  0.90505496  0.50671201  0.14907515    -0.57200
O447        O  0.87028489  0.47203196  0.12288159    -0.56000
C448        C  0.83600594  0.55519537  0.13013014     0.77800
O449        O  0.83666055  0.48374132  0.13537920    -0.58300
O450        O  0.87248612  0.51718474  0.16317344    -0.56800
O451        O  0.86968423  0.50894580  0.09840542    -0.56800
O452        O  0.85877116  0.55796599  0.13095328    -0.56000
O453        O  0.16984990  0.54291352  0.65152691    -0.57200
C454        C  0.17902883  0.56068594  0.59786973     0.75500
O455        O  0.13137846  0.57792452  0.63995992    -0.58300
C456        C  0.17744953  0.55182498  0.66602389     0.75400
C457        C  0.21138606  0.61715717  0.63436876     0.77800
Cd458      Cd  0.17458589  0.58065263  0.63358273     1.37500
O459        O  0.16469515  0.57778881  0.60209469    -0.57200
O460        O  0.21615116  0.59544122  0.62988599    -0.56000
C461        C  0.12545979  0.59868723  0.63411062     0.77800
O462        O  0.18977942  0.62164750  0.63931485    -0.58300
O463        O  0.19130632  0.55160258  0.61054445    -0.56800
O464        O  0.18473874  0.57350819  0.66533588    -0.56800
O465        O  0.14250998  0.61182261  0.62840730    -0.56000
O466        O  0.90232095  0.50447469  0.61002239    -0.57200
C467        C  0.91838254  0.51572153  0.66630494     0.75500
O468        O  0.93370637  0.57604629  0.63105456    -0.58300
C469        C  0.90411848  0.51825631  0.59649364     0.75400
C470        C  0.86524004  0.56456390  0.63557550     0.77800
Cd471      Cd  0.90976012  0.53847232  0.63197845     1.37500
O472        O  0.92599517  0.50605471  0.65193856    -0.57200
O473        O  0.86540417  0.54160757  0.63416574    -0.56000
C474        C  0.95378131  0.56537112  0.62805973     0.77800
O475        O  0.88564527  0.57493071  0.63569499    -0.58300
O476        O  0.90569852  0.53482212  0.66468287    -0.56800
O477        O  0.90767683  0.54040059  0.59978170    -0.56800
O478        O  0.95298905  0.54249598  0.62694319    -0.56000
O479        O  0.18983056  0.55010467  0.45241674    -0.57200
C480        C  0.17214262  0.55182645  0.39688516     0.75500
O481        O  0.13605641  0.60517482  0.42954198    -0.58300
C482        C  0.18684305  0.56486265  0.46529429     0.75400
C483        C  0.20766456  0.61368156  0.42228181     0.77800
Cd484      Cd  0.17254202  0.57864072  0.42977698     1.37500
O485        O  0.17147053  0.54151353  0.41200816    -0.57200
O486        O  0.21337162  0.59144653  0.42388119    -0.56000
C487        C  0.12221020  0.58877859  0.43540986     0.77800
O488        O  0.18555318  0.61956233  0.42464989    -0.58300
O489        O  0.17404321  0.57463391  0.39686396    -0.56800
O490        O  0.17826912  0.58554400  0.46137319    -0.56800
O491        O  0.13160602  0.56805433  0.43802658    -0.56000
O492        O  0.89899024  0.49080986  0.45182520    -0.57200
C493        C  0.90985870  0.50302790  0.39411803     0.75500
O494        O  0.88180319  0.56248936  0.42737412    -0.58300
C495        C  0.89351135  0.50516817  0.46455128     0.75400
C496        C  0.94996759  0.54755200  0.43412945     0.77800
Cd497      Cd  0.90383178  0.52466325  0.42930988     1.37500
O498        O  0.91768182  0.49258597  0.40807339    -0.57200
O499        O  0.94641293  0.52544275  0.43759698    -0.56000
C500        C  0.86131882  0.55284611  0.42469588     0.77800
O501        O  0.93182164  0.55946530  0.42843305    -0.58300
O502        O  0.89793930  0.52244224  0.39652598    -0.56800
O503        O  0.89176996  0.52737739  0.46057031    -0.56800
O504        O  0.86053022  0.52982575  0.42421755    -0.56000
C505        C  0.92086961  0.26591791  0.70249167     0.87100
C506        C  0.90700481  0.28769308  0.69448738    -0.53100
C507        C  0.91496828  0.29582180  0.67810070     0.10100
C508        C  0.93669747  0.28003240  0.67111156     0.21000
C509        C  0.91807530  0.24686579  0.68741777    -0.53800
C510        C  0.92682530  0.25418297  0.67115234     0.10200
C511        C  0.94765012  0.27315227  0.70200090    -0.53400
C512        C  0.95628571  0.27974865  0.68568453     0.10700
H513        H  0.89199539  0.29565242  0.70168923     0.15300
H514        H  0.94460559  0.28488322  0.65813705     0.01000
H515        H  0.90847791  0.22995367  0.68877280     0.15600
H516        H  0.95939227  0.27143801  0.71357014     0.15300
C517        C  0.17400276  0.28172448  0.70277836     0.87100
C518        C  0.14640451  0.28028269  0.69979989    -0.53100
C519        C  0.13873011  0.28858413  0.68360418     0.10100
C520        C  0.15960081  0.29708334  0.67128895     0.21000
C521        C  0.18424484  0.26683756  0.68677894    -0.53800
C522        C  0.17729780  0.27532051  0.67036744     0.10200
C523        C  0.18028832  0.30812643  0.69859124    -0.53400
C524        C  0.17313060  0.31639632  0.68220268     0.10700
H525        H  0.13382517  0.27337732  0.70974076     0.15300
H526        H  0.15353523  0.30312418  0.65791560     0.01000
H527        H  0.19450504  0.25007510  0.68794149     0.15600
H528        H  0.18919601  0.31965118  0.70828013     0.15300
C529        C  0.18224827  0.53081740  0.71490519     0.87100
C530        C  0.19082143  0.50507372  0.70960665    -0.53100
C531        C  0.18065939  0.49627294  0.69438475     0.10100
C532        C  0.16282366  0.51427484  0.68545104     0.21000
C533        C  0.18720288  0.54647822  0.69837179    -0.53800
C534        C  0.17697975  0.53803715  0.68301358     0.10200
C535        C  0.15423500  0.52810601  0.71554920    -0.53400
C536        C  0.14373721  0.51983637  0.70011293     0.10700
H537        H  0.20145685  0.49316132  0.71801641     0.15300
H538        H  0.15498968  0.50765058  0.67277923     0.01000
H539        H  0.19742567  0.56320469  0.69890349     0.15600
H540        H  0.14378708  0.53175449  0.72759168     0.15300
C541        C  0.92184362  0.49973461  0.71656726     0.87100
C542        C  0.94956769  0.50217321  0.71626504    -0.53100
C543        C  0.96078300  0.49446682  0.70099482     0.10100
C544        C  0.94293862  0.48493276  0.68683652     0.21000
C545        C  0.91303607  0.51304471  0.69950261    -0.53800
C546        C  0.92434571  0.50558502  0.68407192     0.10200
C547        C  0.91688612  0.47294437  0.71156872    -0.53400
C548        C  0.92805497  0.46518684  0.69621447     0.10700
H549        H  0.95956467  0.50987001  0.72734290     0.15300
H550        H  0.95192235  0.47855562  0.67434729     0.01000
H551        H  0.89774933  0.52555076  0.69910419     0.15600
H552        H  0.90430514  0.46150494  0.71881805     0.15300
C553        C  0.15418140  0.51940451  0.84041611     0.87100
C554        C  0.12718926  0.52560914  0.84329885    -0.53100
C555        C  0.11710984  0.51601144  0.85840276     0.10100
C556        C  0.13525316  0.50100035  0.86968862     0.21000
C557        C  0.16673474  0.52738978  0.85787609    -0.53800
C558        C  0.15663051  0.51816422  0.87318721     0.10200
C559        C  0.15601674  0.49159955  0.84185833    -0.53400
C560        C  0.14590585  0.48172029  0.85679664     0.10700
H561        H  0.11683999  0.53663896  0.83395800     0.15300
H562        H  0.12733742  0.49312312  0.88201869     0.01000
H563        H  0.18353625  0.53733159  0.85835284     0.15600
H564        H  0.16513432  0.48043974  0.83187271     0.15300
C565        C  0.90486404  0.51928411  0.84499309     0.87100
C566        C  0.90414051  0.49140918  0.84405728    -0.53100
C567        C  0.91085665  0.47990587  0.85928857     0.10100
C568        C  0.91843888  0.49716606  0.87437596     0.21000
C569        C  0.88951075  0.52611904  0.86159254    -0.53800
C570        C  0.89691549  0.51468955  0.87692534     0.10200
C571        C  0.93144734  0.52383583  0.85061841    -0.53400
C572        C  0.93844423  0.51284913  0.86618430     0.10700
H573        H  0.89920172  0.48138848  0.83213010     0.15300
H574        H  0.92358572  0.48772736  0.88687147     0.01000
H575        H  0.87430507  0.53883782  0.86121916     0.15600
H576        H  0.94470678  0.53369901  0.84253236     0.15300
C577        C  0.93136286  0.26042590  0.83609795     0.87100
C578        C  0.95764895  0.25587942  0.84213590    -0.53100
C579        C  0.96328566  0.26596725  0.85812338     0.10100
C580        C  0.94156171  0.27804186  0.86776621     0.21000
C581        C  0.91680384  0.24885134  0.85173400    -0.53800
C582        C  0.92230211  0.25814410  0.86825189     0.10200
C583        C  0.92727929  0.28788644  0.83811254    -0.53400
C584        C  0.93136313  0.29732337  0.85472641     0.10700
H585        H  0.97092026  0.24525757  0.83463409     0.15300
H586        H  0.94585488  0.28477158  0.88126687     0.01000
H587        H  0.90451046  0.23377340  0.85025238     0.15600
H588        H  0.92129684  0.29898264  0.82695315     0.15300
C589        C  0.17898054  0.26502913  0.83249755     0.87100
C590        C  0.17189126  0.29228082  0.83369776    -0.53100
C591        C  0.16151705  0.29927224  0.84949050     0.10100
C592        C  0.15786662  0.27811037  0.86249481     0.21000
C593        C  0.19434173  0.26002719  0.84898328    -0.53800
C594        C  0.18334046  0.26642590  0.86471974     0.10200
C595        C  0.15473092  0.25221551  0.83639536    -0.53400
C596        C  0.14300455  0.25961382  0.85165726     0.10700
H597        H  0.17480328  0.30513576  0.82293919     0.15300
H598        H  0.14924299  0.28416996  0.87516463     0.01000
H599        H  0.21245557  0.25205131  0.84822267     0.15600
H600        H  0.14667017  0.23940097  0.82737378     0.15300
O601        O  0.19159016  0.25559624  0.93822700    -0.57200
C602        C  0.19594656  0.26354197  0.88193200     0.75500
O603        O  0.25545911  0.29043091  0.90682204    -0.58300
C604        C  0.20681717  0.25549488  0.95091629     0.75400
C605        C  0.25296163  0.21819218  0.91076256     0.77800
Cd606      Cd  0.22349476  0.26078305  0.91450476     1.37500
O607        O  0.18525486  0.26555553  0.89688930    -0.57200
O608        O  0.23005607  0.21659838  0.91184756    -0.56000
C609        C  0.24504424  0.30783622  0.91488204     0.77800
O610        O  0.26178647  0.23924277  0.91181324    -0.58300
O611        O  0.21853141  0.25951853  0.88234350    -0.56800
O612        O  0.22888957  0.25744455  0.94644394    -0.56800
O613        O  0.22522378  0.30334906  0.92270171    -0.56000
O614        O  0.16363539  0.53803782  0.94967081    -0.57200
C615        C  0.16756673  0.52209464  0.89102834     0.75500
O616        O  0.22901693  0.55087400  0.91940759    -0.58300
C617        C  0.17765378  0.53013523  0.96184119     0.75400
C618        C  0.21691002  0.48094281  0.92345310     0.77800
Cd619      Cd  0.19282532  0.52709221  0.92470913     1.37500
O620        O  0.15790628  0.51468500  0.90543023    -0.57200
O621        O  0.19419054  0.48363034  0.92175800    -0.56000
C622        C  0.21837065  0.57139742  0.91992696     0.77800
O623        O  0.22899552  0.50018460  0.92558226    -0.58300
O624        O  0.18764297  0.53276531  0.89255340    -0.56800
O625        O  0.19745807  0.52067436  0.95668425    -0.56800
O626        O  0.19569160  0.57143796  0.92291228    -0.56000
O627        O  0.19348443  0.28570168  0.13861282    -0.57200
C628        C  0.20650954  0.27292306  0.08268188     0.75500
O629        O  0.25866171  0.31168032  0.11871309    -0.58300
C630        C  0.20565742  0.28071143  0.15247333     0.75400
C631        C  0.26118650  0.23977834  0.11671437     0.77800
Cd632      Cd  0.22776882  0.27952720  0.11735522     1.37500
O633        O  0.19519453  0.26574610  0.09648486    -0.57200
O634        O  0.23845148  0.23645949  0.11698413    -0.56000
C635        C  0.24366808  0.32890940  0.11611481     0.77800
O636        O  0.26829350  0.26157171  0.11685326    -0.58300
O637        O  0.22680950  0.28275859  0.08524515    -0.56800
O638        O  0.22735065  0.27375244  0.14999316    -0.56800
O639        O  0.22192048  0.32263435  0.11373411    -0.56000
O640        O  0.17095949  0.54717174  0.10794434    -0.57200
C641        C  0.17759795  0.53917436  0.16623275     0.75500
O642        O  0.24251518  0.52235515  0.13161918    -0.58300
C643        C  0.18567084  0.54043426  0.09574438     0.75400
C644        C  0.22358660  0.58955820  0.13020879     0.77800
Cd645      Cd  0.20242683  0.54295622  0.13217410     1.37500
O646        O  0.16874464  0.53035102  0.15206526    -0.57200
O647        O  0.20102681  0.58708469  0.12761965    -0.56000
C648        C  0.23366354  0.50148412  0.13391943     0.77800
O649        O  0.23558217  0.57069148  0.13441706    -0.58300
O650        O  0.19701155  0.55098972  0.16447069    -0.56800
O651        O  0.20637686  0.53333351  0.10081793    -0.56800
O652        O  0.21086257  0.50021707  0.13585917    -0.56000
C653        C  0.92049747  0.49506598  0.34323496     0.87100
C654        C  0.91779999  0.46742576  0.34411763    -0.53100
C655        C  0.92599656  0.45684576  0.35938679     0.10100
C656        C  0.93612081  0.47505648  0.37294282     0.21000
C657        C  0.90743923  0.50453312  0.36042165    -0.53800
C658        C  0.91567543  0.49384767  0.37596396     0.10200
C659        C  0.94717120  0.50034928  0.34780016    -0.53400
C660        C  0.95544949  0.48943797  0.36287315     0.10700
H661        H  0.90961765  0.45708907  0.33339737     0.15300
H662        H  0.94321744  0.46659058  0.38535216     0.01000
H663        H  0.89535312  0.52014720  0.36081752     0.15600
H664        H  0.95841109  0.51270835  0.34016418     0.15300
C665        C  0.16715488  0.52797327  0.34836071     0.87100
C666        C  0.13950651  0.52654809  0.35171899    -0.53100
C667        C  0.13247655  0.52037948  0.36875013     0.10100
C668        C  0.15451469  0.51451700  0.38065637     0.21000
C669        C  0.17527197  0.54555053  0.36346275    -0.53800
C670        C  0.16909377  0.53783778  0.38030210     0.10200
C671        C  0.17711646  0.50312525  0.35394422    -0.53400
C672        C  0.17005988  0.49586247  0.37044659     0.10700
H673        H  0.12655874  0.53033359  0.34118054     0.15300
H674        H  0.15044804  0.50893613  0.39442073     0.01000
H675        H  0.18298900  0.56328893  0.36150261     0.15600
H676        H  0.18767953  0.49143864  0.34506820     0.15300
C677        C  0.95393949  0.24725721  0.33990157     0.87100
C678        C  0.98151527  0.24826957  0.34310054    -0.53100
C679        C  0.98790339  0.25628870  0.35957189     0.10100
C680        C  0.96634076  0.26085301  0.37224233     0.21000
C681        C  0.94578460  0.22974486  0.35497592    -0.53800
C682        C  0.95186750  0.23722425  0.37185365     0.10200
C683        C  0.94417528  0.27240723  0.34562834    -0.53400
C684        C  0.95040211  0.27951367  0.36254969     0.10700
H685        H  0.99519504  0.24318695  0.33327881     0.15300
H686        H  0.97172798  0.26621076  0.38591231     0.01000
H687        H  0.93721668  0.21241788  0.35265221     0.15600
H688        H  0.93352524  0.28387852  0.33676357     0.15300
C689        C  0.19959234  0.28748503  0.33278691     0.87100
C690        C  0.20467152  0.31406373  0.33701991    -0.53100
C691        C  0.19669073  0.32176266  0.35332935     0.10100
C692        C  0.18510998  0.30149305  0.36459648     0.21000
C693        C  0.21144764  0.27306477  0.34841525    -0.53800
C694        C  0.20384084  0.28073058  0.36507719     0.10200
C695        C  0.17243292  0.28384433  0.33675052    -0.53400
C696        C  0.16471840  0.29103185  0.35323866     0.10700
H697        H  0.21386318  0.32583451  0.32761137     0.15300
H698        H  0.17885970  0.30730143  0.37803315     0.01000
H699        H  0.22233960  0.25672453  0.34673454     0.15600
H700        H  0.16042959  0.27474850  0.32750820     0.15300
C701        C  0.93858065  0.25045942  0.20999430     0.87100
C702        C  0.93600901  0.27841471  0.20901398    -0.53100
C703        C  0.94488218  0.28873324  0.19372374     0.10100
C704        C  0.95653386  0.27006319  0.18086258     0.21000
C705        C  0.92713466  0.24121645  0.19262838    -0.53800
C706        C  0.93650498  0.25140529  0.17738633     0.10200
C707        C  0.96613358  0.24663323  0.20744564    -0.53400
C708        C  0.97550744  0.25665674  0.19232584     0.10700
H709        H  0.92884274  0.28955342  0.21980080     0.15300
H710        H  0.96398131  0.27821962  0.16848392     0.01000
H711        H  0.91242907  0.22824394  0.19248325     0.15600
H712        H  0.97775705  0.23808903  0.21734636     0.15300
C713        C  0.19269211  0.28011332  0.20304777     0.87100
C714        C  0.16630105  0.27158718  0.19988029    -0.53100
C715        C  0.15554620  0.28066147  0.18473814     0.10100
C716        C  0.17191776  0.29814074  0.17440551     0.21000
C717        C  0.20628876  0.27436901  0.18557501    -0.53800
C718        C  0.19537678  0.28358276  0.17062565     0.10200
C719        C  0.18942906  0.30788742  0.20319405    -0.53400
C720        C  0.17872588  0.31739278  0.18838193     0.10700
H721        H  0.15590559  0.26110539  0.20937982     0.15300
H722        H  0.16357527  0.30574001  0.16215698     0.01000
H723        H  0.22314711  0.26394788  0.18512887     0.15600
H724        H  0.19398512  0.31915645  0.21458106     0.15300
C725        C  0.16045085  0.53751068  0.21630008     0.87100
C726        C  0.16193334  0.50944121  0.21604120    -0.53100
C727        C  0.15464802  0.49862209  0.20046287     0.10100
C728        C  0.14533318  0.51735093  0.18669319     0.21000
C729        C  0.17425763  0.54562322  0.19943117    -0.53800
C730        C  0.16629089  0.53513687  0.18396088     0.10200
C731        C  0.13348360  0.54233293  0.21210093    -0.53400
C732        C  0.12559272  0.53190381  0.19674225     0.10700
H733        H  0.16753769  0.49909028  0.22765647     0.15300
H734        H  0.13910062  0.50929301  0.17398551     0.01000
H735        H  0.18916547  0.55834645  0.19976658     0.15600
H736        H  0.12056572  0.55066509  0.22120331     0.15300
C737        C  0.91363209  0.50846181  0.21320548     0.87100
C738        C  0.93954285  0.51699289  0.20819762    -0.53100
C739        C  0.94819417  0.50834798  0.19213441     0.10100
C740        C  0.93045201  0.49138157  0.18277604     0.21000
C741        C  0.89789445  0.51493616  0.19700704    -0.53800
C742        C  0.90675631  0.50626225  0.18111649     0.10200
C743        C  0.91660052  0.48063877  0.21251377    -0.53400
C744        C  0.92530404  0.47154982  0.19678044     0.10700
H745        H  0.95099342  0.52747222  0.21695494     0.15300
H746        H  0.93726184  0.48440202  0.16978574     0.01000
H747        H  0.88121861  0.52557642  0.19806128     0.15600
H748        H  0.91295032  0.46895964  0.22386451     0.15300
O749        O  0.18233447  0.27408898  0.63837718    -0.57200
C750        C  0.20041464  0.25641402  0.58368391     0.75500
O751        O  0.21979476  0.20150846  0.62459779    -0.58300
C752        C  0.18486240  0.26362679  0.65333781     0.75400
C753        C  0.15003939  0.21421108  0.61691238     0.77800
Cd754      Cd  0.19562609  0.23841400  0.62004115     1.37500
O755        O  0.20459152  0.27055188  0.59669885    -0.57200
O756        O  0.15202734  0.23698671  0.61804838    -0.56000
C757        C  0.24026821  0.21173455  0.62489936     0.77800
O758        O  0.16971478  0.20209767  0.61743308    -0.58300
O759        O  0.19487853  0.23496331  0.58780565    -0.56800
O760        O  0.19382578  0.24239235  0.65293977    -0.56800
O761        O  0.24006870  0.23467858  0.62345311    -0.56000
O762        O  0.93750768  0.20746746  0.59245978    -0.57200
C763        C  0.92677349  0.23879085  0.65503053     0.75500
O764        O  0.91151771  0.16979169  0.63500530    -0.58300
C765        C  0.92459059  0.22550903  0.58801247     0.75400
C766        C  0.97631778  0.18714648  0.62423300     0.77800
Cd767      Cd  0.92837537  0.20759292  0.62417963     1.37500
O768        O  0.93423827  0.24644598  0.64004106    -0.57200
O769        O  0.97143863  0.20783965  0.63076682    -0.56000
C770        C  0.88971340  0.17483611  0.63110108     0.77800
O771        O  0.95870440  0.17512647  0.61820880    -0.58300
O772        O  0.91965149  0.21710262  0.65557075    -0.56800
O773        O  0.91286809  0.23604612  0.60046492    -0.56800
O774        O  0.88586818  0.19480130  0.62317959    -0.56000
O775        O  0.21519002  0.27259414  0.43810984    -0.57200
C776        C  0.20819423  0.26733912  0.38188268     0.75500
O777        O  0.23675616  0.20420965  0.41089068    -0.58300
C778        C  0.21818429  0.25756112  0.45079922     0.75400
C779        C  0.16788660  0.21373530  0.41943815     0.77800
Cd780      Cd  0.21237032  0.24007298  0.41479620     1.37500
O781        O  0.20119935  0.27578286  0.39680923    -0.57200
O782        O  0.17082647  0.23481365  0.42563571    -0.56000
C783        C  0.25707967  0.21451385  0.41249105     0.77800
O784        O  0.18511800  0.20497922  0.41013622    -0.58300
O785        O  0.21783238  0.24645831  0.38212194    -0.56800
O786        O  0.21940992  0.23541065  0.44645905    -0.56800
O787        O  0.25684382  0.23734641  0.41460680    -0.56000
O788        O  0.92427935  0.22477707  0.44238686    -0.57200
C789        C  0.94700763  0.22317532  0.38829495     0.75500
O790        O  0.98140707  0.17151418  0.41762685    -0.58300
C791        C  0.92741847  0.21094480  0.45579298     0.75400
C792        C  0.90528603  0.15952948  0.41600373     0.77800
Cd793      Cd  0.94230462  0.19485875  0.42079108     1.37500
O794        O  0.94755005  0.23293375  0.40360900    -0.57200
O795        O  0.90043392  0.18202800  0.41687610    -0.56000
C796        C  0.99286387  0.18564822  0.42789163     0.77800
O797        O  0.92752214  0.15335098  0.41691881    -0.58300
O798        O  0.94289636  0.20067408  0.38789999    -0.56800
O799        O  0.93648960  0.19018816  0.45256451    -0.56800
O800        O  0.98042445  0.20229682  0.43517220    -0.56000
C801        C  0.11317666  0.18911020  0.44411119    -0.04800
C802        C  0.09801122  0.18312787  0.42968583     0.09300
C803        C  0.10770315  0.18248758  0.41219242    -0.02200
C804        C  0.13126964  0.19119356  0.40887474    -0.00500
C805        C  0.14525878  0.20028156  0.42306978    -0.04100
C806        C  0.13669083  0.19796696  0.44081328     0.02900
C807        C  0.07107228  0.18257220  0.43225409     0.09800
C808        C  0.09280930  0.17445978  0.39742989     0.35700
C809        C  0.15193638  0.20502312  0.45565246     0.39100
C810        C  0.05841160  0.20472483  0.43483255    -0.04400
C811        C  0.03295810  0.20562820  0.43358545     0.02700
C812        C  0.01966150  0.18405498  0.43063170    -0.04000
C813        C  0.03233307  0.16154622  0.42968902    -0.00300
C814        C  0.05799576  0.16088683  0.43026964    -0.02800
C815        C  0.07168175  0.22697412  0.43801935     0.36400
C816        C  0.01910251  0.13901202  0.42839006     0.40000
C817        C  0.02087124  0.22922303  0.43419751     0.39200
C818        C  0.07106223  0.13798981  0.42859226     0.36100
C819        C  0.10407859  0.18711649  0.46224914     0.36800
C820        C  0.14031539  0.19242236  0.39070825     0.40000
N821        N  0.01131749  0.24804889  0.43460224    -0.38000
N822        N  0.08219996  0.24471824  0.44052945    -0.39600
N823        N  0.00860283  0.12097343  0.42746843    -0.37400
N824        N  0.08156840  0.11976454  0.42718810    -0.39800
N825        N  0.08090844  0.16808179  0.38566693    -0.39500
N826        N  0.14747665  0.19326634  0.37618411    -0.37200
N827        N  0.16413991  0.21061005  0.46747103    -0.38200
N828        N  0.09680887  0.18541532  0.47671370    -0.39900
C829        C  0.89926767  0.23619657  0.54161234    -0.04800
C830        C  0.92070520  0.23425779  0.53125225     0.09300
C831        C  0.94349945  0.23414208  0.53980687    -0.02200
C832        C  0.94475064  0.23353374  0.55859775    -0.00500
C833        C  0.92321371  0.23288716  0.56895798    -0.04100
C834        C  0.90049863  0.23566861  0.56044688     0.02900
C835        C  0.91931609  0.22952331  0.51156675     0.09800
C836        C  0.96567708  0.23349421  0.52926120     0.35700
C837        C  0.87830350  0.23641598  0.57094247     0.39100
C838        C  0.92500419  0.24778461  0.49908616    -0.04400
C839        C  0.92643484  0.24224005  0.48066018     0.02700
C840        C  0.92178688  0.21836270  0.47457723    -0.04000
C841        C  0.91420877  0.20064041  0.48708166    -0.00300
C842        C  0.91342690  0.20608585  0.50546565    -0.02800
C843        C  0.92995858  0.27214657  0.50533216     0.36400
C844        C  0.90705062  0.17668289  0.48111103     0.40000
C845        C  0.93392786  0.26088171  0.46820442     0.39200
C846        C  0.90730696  0.18725858  0.51822767     0.36100
C847        C  0.87589770  0.23748479  0.53280135     0.36800
C848        C  0.96826303  0.23325633  0.56730913     0.40000
N849        N  0.93992104  0.27581851  0.45831081    -0.38000
N850        N  0.93390294  0.29155911  0.51038435    -0.39600
N851        N  0.90129967  0.15758664  0.47639017    -0.37400
N852        N  0.90243833  0.17228158  0.52842269    -0.39800
N853        N  0.98338398  0.23308794  0.52086603    -0.39500
N854        N  0.98697131  0.23311551  0.57429782    -0.37200
N855        N  0.86057920  0.23711018  0.57931074    -0.38200
N856        N  0.85729126  0.23838843  0.52569694    -0.39900
C857        C  0.22365467  0.28270389  0.53945805    -0.04800
C858        C  0.20886547  0.27042981  0.52712974     0.09300
C859        C  0.18967229  0.25600891  0.53344619    -0.02200
C860        C  0.18592254  0.25296823  0.55194055    -0.00500
C861        C  0.20184816  0.26374155  0.56443814    -0.04100
C862        C  0.22016707  0.27945642  0.55806266     0.02900
C863        C  0.21447711  0.27079553  0.50749651     0.09800
C864        C  0.17438446  0.24335659  0.52081897     0.35700
C865        C  0.23620400  0.29143965  0.57047594     0.39100
C866        C  0.23178928  0.25428310  0.50044072    -0.04400
C867        C  0.23450517  0.25159792  0.48180660     0.02700
C868        C  0.21923827  0.26474927  0.46999713    -0.04000
C869        C  0.20285798  0.28232457  0.47708513    -0.00300
C870        C  0.20075682  0.28552179  0.49577703    -0.02800
C871        C  0.24596100  0.23911186  0.51242284     0.36400
C872        C  0.18682878  0.29585501  0.46532281     0.40000
C873        C  0.25291181  0.23500657  0.47481527     0.39200
C874        C  0.18378531  0.30331159  0.50303306     0.36100
C875        C  0.24302511  0.29796585  0.53289100     0.36800
C876        C  0.16546893  0.23868934  0.55802121     0.40000
N877        N  0.26759883  0.22182345  0.46921055    -0.38000
N878        N  0.25713993  0.22694394  0.52201052    -0.39600
N879        N  0.17394633  0.30654964  0.45594041    -0.37400
N880        N  0.17029976  0.31757453  0.50882161    -0.39800
N881        N  0.16230250  0.23318922  0.51073459    -0.39500
N882        N  0.14916805  0.22729380  0.56284194    -0.37200
N883        N  0.24903241  0.30112731  0.58031315    -0.38200
N884        N  0.25849065  0.31006763  0.52755045    -0.39900
C885        C  0.08246123  0.20681045  0.60832017    -0.04800
C886        C  0.07812984  0.18383850  0.61591345     0.09300
C887        C  0.09771847  0.16964558  0.62221603    -0.02200
C888        C  0.12146326  0.17906661  0.62206697    -0.00500
C889        C  0.12573183  0.20273546  0.61531872    -0.04100
C890        C  0.10609891  0.21614007  0.60784658     0.02900
C891        C  0.05250761  0.17637608  0.61905461     0.09800
C892        C  0.09318270  0.14569024  0.62945877     0.35700
C893        C  0.10987007  0.23975788  0.59973456     0.39100
C894        C  0.03747333  0.17065721  0.60446742    -0.04400
C895        C  0.01200388  0.17176670  0.60646606     0.02700
C896        C  0.00173141  0.17835902  0.62313865    -0.04000
C897        C  0.01679689  0.18055772  0.63820613    -0.00300
C898        C  0.04217956  0.17976006  0.63617002    -0.02800
C899        C  0.04827579  0.16573114  0.58711290     0.36400
C900        C  0.00610836  0.18444102  0.65572438     0.40000
C901        C  0.99660328  0.16835200  0.59102216     0.39200
C902        C  0.05760757  0.18443157  0.65141852     0.36100
C903        C  0.06229068  0.22143477  0.60169097     0.36800
C904        C  0.14103555  0.16476473  0.62979866     0.40000
N905        N  0.98437134  0.16564880  0.57866981    -0.38000
N906        N  0.05693243  0.16195023  0.57326002    -0.39600
N907        N  0.99750968  0.18734412  0.66969676    -0.37400
N908        N  0.06996436  0.18822869  0.66353599    -0.39800
N909        N  0.08948417  0.12663164  0.63529554    -0.39500
N910        N  0.15655857  0.15327126  0.63601606    -0.37200
N911        N  0.11273254  0.25864095  0.59334032    -0.38200
N912        N  0.04618795  0.23305279  0.59646180    -0.39900
C913        C  0.01424435  0.50053166  0.17685487    -0.04800
C914        C  0.02306402  0.52368007  0.18104555     0.09300
C915        C  0.00662102  0.54281801  0.18461718    -0.02200
C916        C  0.98159571  0.53808898  0.18598977    -0.00500
C917        C  0.97318291  0.51390996  0.18534073    -0.04100
C918        C  0.98947918  0.49533865  0.17944059     0.02900
C919        C  0.04940124  0.52654654  0.18483181     0.09800
C920        C  0.01559614  0.56710702  0.18764410     0.35700
C921        C  0.98177591  0.47064958  0.17643727     0.39100
C922        C  0.06521902  0.53713141  0.17227876    -0.04400
C923        C  0.09013967  0.53934937  0.17624202     0.02700
C924        C  0.09929034  0.53047355  0.19260169    -0.04000
C925        C  0.08338689  0.51940206  0.20499203    -0.00300
C926        C  0.05850843  0.51780757  0.20121251    -0.02800
C927        C  0.05585873  0.54530675  0.15523231     0.36400
C928        C  0.09276237  0.50828542  0.22117766     0.40000
C929        C  0.10626927  0.55095823  0.16359264     0.39200
C930        C  0.04220486  0.50675597  0.21409501     0.36100
C931        C  0.03101692  0.48176759  0.17064409     0.36800
C932        C  0.96446124  0.55817419  0.18738908     0.40000
N933        N  0.11906440  0.56031380  0.15347912    -0.38000
N934        N  0.04833669  0.55174045  0.14161117    -0.39600
N935        N  0.10026210  0.49935042  0.23403226    -0.37400
N936        N  0.02913068  0.49791594  0.22427388    -0.39800
N937        N  0.02283523  0.58646684  0.19006757    -0.39500
N938        N  0.95085696  0.57432205  0.18800057    -0.37200
N939        N  0.97701177  0.45067655  0.17338009    -0.38200
N940        N  0.04421378  0.46678888  0.16551258    -0.39900
C941        C  0.15054571  0.37806395  0.20201097    -0.04800
C942        C  0.15983846  0.39351765  0.18873095     0.09300
C943        C  0.17287320  0.38366918  0.17413581    -0.02200
C944        C  0.17873562  0.35868071  0.17375595    -0.00500
C945        C  0.17096966  0.34338782  0.18773090    -0.04100
C946        C  0.15576801  0.35301338  0.20139204     0.02900
C947        C  0.15834185  0.42035531  0.19127537     0.09800
C948        C  0.18042537  0.39939675  0.15965954     0.35700
C949        C  0.14480816  0.33705545  0.21448815     0.39100
C950        C  0.17713430  0.43210888  0.20031383    -0.04400
C951        C  0.17599358  0.45736143  0.20329184     0.02700
C952        C  0.15567579  0.47142275  0.19735606    -0.04000
C953        C  0.13662804  0.45906565  0.18836341    -0.00300
C954        C  0.13812339  0.43374268  0.18533688    -0.02800
C955        C  0.19770986  0.41790193  0.20677114     0.36400
C956        C  0.11488601  0.47153653  0.18240204     0.40000
C957        C  0.19636681  0.46825397  0.21229076     0.39200
C958        C  0.11865419  0.42119702  0.17627125     0.36100
C959        C  0.13593930  0.38809957  0.21647018     0.36800
C960        C  0.19340271  0.34897533  0.15930601     0.40000
N961        N  0.21307404  0.47571039  0.21970730    -0.38000
N962        N  0.21398625  0.40648174  0.21193917    -0.39600
N963        N  0.09718928  0.48020067  0.17694872    -0.37400
N964        N  0.10314930  0.41114219  0.16909035    -0.39800
N965        N  0.18618803  0.41196253  0.14804761    -0.39500
N966        N  0.20514394  0.34137947  0.14770739    -0.37200
N967        N  0.13590837  0.32428765  0.22482412    -0.38200
N968        N  0.12425309  0.39615586  0.22796430    -0.39900
C969        C  0.94930592  0.40769354  0.20699653    -0.04800
C970        C  0.93970829  0.39432465  0.19268252     0.09300
C971        C  0.92727660  0.40655132  0.17887190    -0.02200
C972        C  0.92305120  0.43180063  0.17987888    -0.00500
C973        C  0.93149657  0.44515329  0.19468117    -0.04100
C974        C  0.94578225  0.43307779  0.20777027     0.02900
C975        C  0.94141142  0.36717772  0.19244106     0.09800
C976        C  0.91834168  0.39282388  0.16379262     0.35700
C977        C  0.95788474  0.44684420  0.22159096     0.39100
C978        C  0.92036392  0.35349386  0.19559176    -0.04400
C979        C  0.92114503  0.32804723  0.19399560     0.02700
C980        C  0.94344051  0.31570092  0.19082349    -0.04000
C981        C  0.96425719  0.32956462  0.18665849    -0.00300
C982        C  0.96327770  0.35519712  0.18769428    -0.02800
C983        C  0.89788610  0.36570856  0.20072411     0.36400
C984        C  0.98640611  0.31802938  0.18036840     0.40000
C985        C  0.89854674  0.31483261  0.19390111     0.39200
C986        C  0.98484900  0.36929992  0.18403094     0.36100
C987        C  0.96228715  0.39522501  0.22115928     0.36800
C988        C  0.91007029  0.44376754  0.16556702     0.40000
N989        N  0.88027185  0.30473629  0.19318099    -0.38000
N990        N  0.88011636  0.37562718  0.20493069    -0.39600
N991        N  0.00415227  0.30971593  0.17458337    -0.37400
N992        N  0.00212432  0.38050519  0.18128028    -0.39800
N993        N  0.91122991  0.38147831  0.15196615    -0.39500
N994        N  0.90007618  0.45295428  0.15378542    -0.37200
N995        N  0.96766499  0.45785165  0.23252688    -0.38200
N996        N  0.97260604  0.38526686  0.23246945    -0.39900
C997        C  0.03808068  0.25063956  0.17056811    -0.04800
C998        C  0.05276593  0.26187689  0.18349962     0.09300
C999        C  0.04216730  0.27092006  0.19938992    -0.02200
C1000       C  0.01693368  0.26955847  0.20207172    -0.00500
C1001       C  0.00217603  0.25801530  0.18926281    -0.04100
C1002       C  0.01285334  0.24843339  0.17354997     0.02900
C1003       C  0.07921590  0.26577091  0.18016961     0.09800
C1004       C  0.05727228  0.28215815  0.21284599     0.35700
C1005       C  0.99796657  0.23616930  0.16051326     0.39100
C1006       C  0.08753219  0.28934262  0.17647820    -0.04400
C1007       C  0.11260439  0.29418585  0.17632709     0.02700
C1008       C  0.12962830  0.27536920  0.18015576    -0.04000
C1009       C  0.12121178  0.25121816  0.18129582    -0.00300
C1010       C  0.09610150  0.24651655  0.18188665    -0.02800
C1011       C  0.07015006  0.30897824  0.17357067     0.36400
C1012       C  0.13840176  0.23108267  0.18094280     0.40000
C1013       C  0.12005434  0.31859116  0.17196318     0.39200
C1014       C  0.08766187  0.22203371  0.18498775     0.36100
C1015       C  0.04890571  0.24173739  0.15409707     0.36800
C1016       C  0.00598162  0.28183678  0.21732093     0.40000
N1017       N  0.12455159  0.33824073  0.16773684    -0.38000
N1018       N  0.05658493  0.32488314  0.17136952    -0.39600
N1019       N  0.15203090  0.21496157  0.18020627    -0.37400
N1020       N  0.08092900  0.20249629  0.18748198    -0.39800
N1021       N  0.06937656  0.29115229  0.22350801    -0.39500
N1022       N  0.99720366  0.29195210  0.22930953    -0.37200
N1023       N  0.98620896  0.22628278  0.15007540    -0.38200
N1024       N  0.05760289  0.23460702  0.14097813    -0.39900
C1025       C  0.20339258  0.24900186  0.24852370    -0.04800
C1026       C  0.21842956  0.26637814  0.25652186     0.09300
C1027       C  0.23139039  0.28244271  0.24551926    -0.02200
C1028       C  0.22576999  0.28413261  0.22716353    -0.00500
C1029       C  0.20597335  0.27083163  0.22004778    -0.04100
C1030       C  0.19783344  0.25066939  0.23018081     0.02900
C1031       C  0.21514891  0.27196997  0.27597361     0.09800
C1032       C  0.24899216  0.29858349  0.25339401     0.35700
C1033       C  0.18528416  0.23073433  0.22186707     0.39100
C1034       C  0.23243741  0.26542315  0.28896069    -0.04400
C1035       C  0.22822793  0.27095552  0.30725879     0.02700
C1036       C  0.20588292  0.28198854  0.31288181    -0.04000
C1037       C  0.18988411  0.29067903  0.29915502    -0.00300
C1038       C  0.19428127  0.28514057  0.28111035    -0.02800
C1039       C  0.25483100  0.25349263  0.28338648     0.36400
C1040       C  0.16856000  0.30562752  0.30304320     0.40000
C1041       C  0.24808566  0.26745951  0.31962963     0.39200
C1042       C  0.17715775  0.29327230  0.26754848     0.36100
C1043       C  0.19201178  0.23069494  0.25957242     0.36800
C1044       C  0.23959212  0.30045641  0.21593562     0.40000
N1045       N  0.26428497  0.26481103  0.32926114    -0.38000
N1046       N  0.27278646  0.24411849  0.27894040    -0.39600
N1047       N  0.15101507  0.31683849  0.30578313    -0.37400
N1048       N  0.16357294  0.29959872  0.25672213    -0.39800
N1049       N  0.26307467  0.31138110  0.25973791    -0.39500
N1050       N  0.25057413  0.31359014  0.20703969    -0.37200
N1051       N  0.17539454  0.21436816  0.21566510    -0.38200
N1052       N  0.18281792  0.21623552  0.26844896    -0.39900
C1053       C  0.95497598  0.24450408  0.28770247    -0.04800
C1054       C  0.93399079  0.23134077  0.28373983     0.09300
C1055       C  0.91860172  0.22417183  0.29780798    -0.02200
C1056       C  0.92446837  0.22969007  0.31581729    -0.00500
C1057       C  0.94673005  0.24140147  0.32017473    -0.04100
C1058       C  0.96062352  0.25061748  0.30548274     0.02900
C1059       C  0.92672776  0.22915087  0.26448190     0.09800
C1060       C  0.89618155  0.21187796  0.29360831     0.35700
C1061       C  0.97956215  0.26837691  0.30781835     0.39100
C1062       C  0.93889458  0.21273441  0.25295380    -0.04400
C1063       C  0.93920078  0.21708097  0.23432493     0.02700
C1064       C  0.92859654  0.23869984  0.22738042    -0.04000
C1065       C  0.91118116  0.25070481  0.23838057    -0.00300
C1066       C  0.91114037  0.24682108  0.25699891    -0.02800
C1067       C  0.95208946  0.19223582  0.26036733     0.36400
C1068       C  0.89196613  0.26531987  0.23064200     0.40000
C1069       C  0.95031534  0.19941852  0.22237358     0.39200
C1070       C  0.89611297  0.26195928  0.26854281     0.36100
C1071       C  0.97029296  0.25299279  0.27314158     0.36800
C1072       C  0.90601388  0.22571015  0.32932541     0.40000
N1073       N  0.95907113  0.18534139  0.21275578    -0.38000
N1074       N  0.96256766  0.17578530  0.26625161    -0.39600
N1075       N  0.87590953  0.27661250  0.22502468    -0.37400
N1076       N  0.88413011  0.27398173  0.27780121    -0.39800
N1077       N  0.87825123  0.20218238  0.29019634    -0.39500
N1078       N  0.89099369  0.22263207  0.33992943    -0.37200
N1079       N  0.99499614  0.28239661  0.30859496    -0.38200
N1080       N  0.98243490  0.25966519  0.26152979    -0.39900
C1081       C  0.05263968  0.25404719  0.37673324    -0.04800
C1082       C  0.06324841  0.27280900  0.36660482     0.09300
C1083       C  0.04842719  0.28764466  0.35570772    -0.02200
C1084       C  0.02335883  0.28341131  0.35476345    -0.00500
C1085       C  0.01328515  0.26306909  0.36343644    -0.04100
C1086       C  0.02786160  0.24861460  0.37467768     0.02900
C1087       C  0.09020062  0.27592899  0.36631311     0.09800
C1088       C  0.05903733  0.30677558  0.34497676     0.35700
C1089       C  0.01764540  0.22757616  0.38339863     0.39100
C1090       C  0.10519572  0.25780709  0.35854795    -0.04400
C1091       C  0.13016648  0.26182916  0.35637383     0.02700
C1092       C  0.13992826  0.28500698  0.36003133    -0.04000
C1093       C  0.12531023  0.30247152  0.36902419    -0.00300
C1094       C  0.10066887  0.29756569  0.37264138    -0.02800
C1095       C  0.09483582  0.23539816  0.35197538     0.36400
C1096       C  0.13507595  0.32579601  0.37405213     0.40000
C1097       C  0.14577150  0.24201023  0.35028930     0.39200
C1098       C  0.08579487  0.31508989  0.38235672     0.36100
C1099       C  0.06760842  0.23997934  0.38878150     0.36800
C1100       C  0.00776489  0.30078623  0.34567236     0.40000
N1101       N  0.15836567  0.22645302  0.34526870    -0.38000
N1102       N  0.08664267  0.21750613  0.34674664    -0.39600
N1103       N  0.14271383  0.34437648  0.37835035    -0.37400
N1104       N  0.07386492  0.32904067  0.39006895    -0.39800
N1105       N  0.06752222  0.32202388  0.33643750    -0.39500
N1106       N  0.99540406  0.31517199  0.33890454    -0.37200
N1107       N  0.00945803  0.21062636  0.39014135    -0.38200
N1108       N  0.08026071  0.22905012  0.39812661    -0.39900
C1109       C  0.16378212  0.52331227  0.29672677    -0.04800
C1110       C  0.17736029  0.54328005  0.29094800     0.09300
C1111       C  0.19059803  0.55670222  0.30351836    -0.02200
C1112       C  0.18927390  0.55096357  0.32198021    -0.00500
C1113       C  0.17294299  0.53287793  0.32825842    -0.04100
C1114       C  0.16188054  0.51782966  0.31505537     0.02900
C1115       C  0.17787517  0.54925669  0.27140153     0.09800
C1116       C  0.20594794  0.57623061  0.29732766     0.35700
C1117       C  0.14903999  0.49591783  0.32002619     0.39100
C1118       C  0.15900653  0.56328710  0.26383513    -0.04400
C1119       C  0.15613161  0.56395292  0.24512420     0.02700
C1120       C  0.17009795  0.54807116  0.23412206    -0.04000
C1121       C  0.19221692  0.53914426  0.24134496    -0.00300
C1122       C  0.19571170  0.53894770  0.26003854    -0.02800
C1123       C  0.14200202  0.57623020  0.27532091     0.36400
C1124       C  0.21159717  0.53111893  0.22954384     0.40000
C1125       C  0.14146099  0.58313217  0.23730782     0.39200
C1126       C  0.21698582  0.52725236  0.26762070     0.36100
C1127       C  0.15169888  0.50824199  0.28361368     0.36800
C1128       C  0.20714383  0.56159570  0.33362674     0.40000
N1129       N  0.12998063  0.59865940  0.23107752    -0.38000
N1130       N  0.12832719  0.58640903  0.28450848    -0.39600
N1131       N  0.22742594  0.52562725  0.22009364    -0.37400
N1132       N  0.23398456  0.51798185  0.27372666    -0.39800
N1133       N  0.21819269  0.59179704  0.29236062    -0.39500
N1134       N  0.22198615  0.57003520  0.34251773    -0.37200
N1135       N  0.13898591  0.47828914  0.32377298    -0.38200
N1136       N  0.14216034  0.49629012  0.27310813    -0.39900
C1137       C  0.18766415  0.39058640  0.35355968    -0.04800
C1138       C  0.19092552  0.39575487  0.37181988     0.09300
C1139       C  0.19912009  0.37743049  0.38345051    -0.02200
C1140       C  0.20354053  0.35379719  0.37685808    -0.00500
C1141       C  0.19719222  0.34775696  0.35909646    -0.04100
C1142       C  0.18970680  0.36661763  0.34734271     0.02900
C1143       C  0.18482532  0.42064349  0.37828437     0.09800
C1144       C  0.20235896  0.38274553  0.40223849     0.35700
C1145       C  0.18335072  0.36201658  0.32890408     0.39100
C1146       C  0.16052769  0.42871813  0.37683597    -0.04400
C1147       C  0.15553127  0.45350378  0.37440466     0.02700
C1148       C  0.17427339  0.47057714  0.37629973    -0.04000
C1149       C  0.19801544  0.46263305  0.38053419    -0.00300
C1150       C  0.20347621  0.43758771  0.38096855    -0.02800
C1151       C  0.14107629  0.41123865  0.37535249     0.36400
C1152       C  0.21719488  0.48020512  0.38273001     0.40000
C1153       C  0.13223908  0.46057502  0.36697537     0.39200
C1154       C  0.22847648  0.42930860  0.38247840     0.36100
C1155       C  0.18144687  0.41004768  0.34118352     0.36800
C1156       C  0.21589254  0.33625598  0.38811658     0.40000
N1157       N  0.11373731  0.46543021  0.36055975    -0.38000
N1158       N  0.12541578  0.39752394  0.37406738    -0.39600
N1159       N  0.23248593  0.49425421  0.38441505    -0.37400
N1160       N  0.24841311  0.42261808  0.38361449    -0.39800
N1161       N  0.20479131  0.38696331  0.41725759    -0.39500
N1162       N  0.22626786  0.32268595  0.39716163    -0.37200
N1163       N  0.17851999  0.35959690  0.31400284    -0.38200
N1164       N  0.17644189  0.42555717  0.33140315    -0.39900
C1165       C  0.88187515  0.50444043  0.25872788    -0.04800
C1166       C  0.89558925  0.52110447  0.26866289     0.09300
C1167       C  0.90831630  0.53932140  0.25946557    -0.02200
C1168       C  0.91159499  0.53769074  0.24076423    -0.00500
C1169       C  0.90270871  0.51729880  0.23130161    -0.04100
C1170       C  0.88439265  0.50351312  0.23995197     0.02900
C1171       C  0.90138341  0.51608385  0.28790769     0.09800
C1172       C  0.91926690  0.55884830  0.26949402     0.35700
C1173       C  0.86862361  0.48793473  0.22967160     0.39100
C1174       C  0.92375765  0.50485250  0.29182087    -0.04400
C1175       C  0.92975482  0.49856421  0.30948646     0.02700
C1176       C  0.91354004  0.50392399  0.32409775    -0.04000
C1177       C  0.89027762  0.51398451  0.31970625    -0.00300
C1178       C  0.88473287  0.52079628  0.30185883    -0.02800
C1179       C  0.94063434  0.49915728  0.27733039     0.36400
C1180       C  0.87078459  0.51506829  0.33272645     0.40000
C1181       C  0.95271397  0.48575050  0.31202366     0.39200
C1182       C  0.86160970  0.53230653  0.29773279     0.36100
C1183       C  0.86668999  0.48704602  0.26787893     0.36800
C1184       C  0.92231723  0.55793036  0.23144436     0.40000
N1185       N  0.97135349  0.47610483  0.31372733    -0.38000
N1186       N  0.95396664  0.49477452  0.26574327    -0.39600
N1187       N  0.85474908  0.51581510  0.34278013    -0.37400
N1188       N  0.84316344  0.54152457  0.29447540    -0.39800
N1189       N  0.92795192  0.57441172  0.27755167    -0.39500
N1190       N  0.93069504  0.57457541  0.22442456    -0.37200
N1191       N  0.85603303  0.47559072  0.22141403    -0.38200
N1192       N  0.85458762  0.47312825  0.27517885    -0.39900
C1193       C  0.95426981  0.34468501  0.37914615    -0.04800
C1194       C  0.93139513  0.35339425  0.37364960     0.09300
C1195       C  0.91303106  0.33690691  0.36927294    -0.02200
C1196       C  0.91868105  0.31199272  0.36776536    -0.00500
C1197       C  0.94289161  0.30369278  0.37007185    -0.04100
C1198       C  0.95998413  0.31976695  0.37769267     0.02900
C1199       C  0.92814914  0.37970931  0.36973876     0.09800
C1200       C  0.88868696  0.34576878  0.36556034     0.35700
C1201       C  0.98341945  0.31142690  0.38405494     0.39100
C1202       C  0.93664901  0.38871705  0.35329781    -0.04400
C1203       C  0.93509906  0.41368837  0.34954585     0.02700
C1204       C  0.92541467  0.43004087  0.36246126    -0.04000
C1205       C  0.91557408  0.42061737  0.37851289    -0.00300
C1206       C  0.91726737  0.39555021  0.38222367    -0.02800
C1207       C  0.94741170  0.37214822  0.34028915     0.36400
C1208       C  0.90221514  0.43623776  0.39074932     0.40000
C1209       C  0.94374714  0.42207993  0.33233596     0.39200
C1210       C  0.90792783  0.38598335  0.39889845     0.36100
C1211       C  0.97229145  0.36170571  0.38543231     0.36800
C1212       C  0.89957229  0.29481407  0.36407180     0.40000
N1213       N  0.95045454  0.42789405  0.31833611    -0.38000
N1214       N  0.95603542  0.35893615  0.32997525    -0.39600
N1215       N  0.89103851  0.44814517  0.40059952    -0.37400
N1216       N  0.90046013  0.37831797  0.41219145    -0.39800
N1217       N  0.86923898  0.35289677  0.36269956    -0.39500
N1218       N  0.88435770  0.28100037  0.36131515    -0.37200
N1219       N  0.00208992  0.30564377  0.38979778    -0.38200
N1220       N  0.98658883  0.37533304  0.39043733    -0.39900
C1221       C  0.02342661  0.48388378  0.36828163     0.17600
C1222       C  0.02909547  0.50709122  0.37510423     0.09300
C1223       C  0.01009679  0.52319748  0.38006564    -0.02200
C1224       C  0.98575078  0.51688698  0.37698882    -0.00500
C1225       C  0.98025084  0.49407711  0.36953114    -0.04100
C1226       C  0.99903326  0.47714741  0.36608735     0.02900
C1227       C  0.05511304  0.51439713  0.37675044     0.09800
C1228       C  0.01561383  0.54653070  0.38786636     0.35700
C1229       C  0.99338051  0.45285342  0.36009230     0.39100
C1230       C  0.06466385  0.53294774  0.36593537    -0.04400
C1231       C  0.08974704  0.53751856  0.36604166     0.02700
C1232       C  0.10604951  0.52112401  0.37461242    -0.04000
C1233       C  0.09604756  0.50478930  0.38739260    -0.00300
C1234       C  0.07062332  0.50191297  0.38858854    -0.02800
C1235       C  0.04897399  0.54666980  0.35403017     0.36400
C1236       C  0.11099706  0.49026929  0.39922249     0.40000
C1237       C  0.09849081  0.55976326  0.35796778     0.39200
C1238       C  0.06029078  0.48531068  0.40156156     0.36100
C1239       C  0.04268179  0.46723907  0.36277539     0.36800
C1240       C  0.96635612  0.53399375  0.38129701     0.40000
N1241       N  0.10545790  0.57752814  0.35159521    -0.38000
N1242       N  0.03652037  0.55765224  0.34451816    -0.39600
N1243       N  0.12215683  0.47836922  0.40901628    -0.37400
N1244       N  0.05197702  0.47212383  0.41187923    -0.39800
N1245       N  0.02003421  0.56529373  0.39387000    -0.39500
N1246       N  0.95096692  0.54771840  0.38475675    -0.37200
N1247       N  0.98939263  0.43320208  0.35562072    -0.38200
N1248       N  0.05795271  0.45389417  0.35836090    -0.39900
C1249       C  0.25213608  0.43755418  0.14448722    -0.04800
C1250       C  0.26248756  0.43062031  0.12797395     0.09300
C1251       C  0.26923378  0.44846702  0.11547595    -0.02200
C1252       C  0.26229887  0.47287398  0.11834346    -0.00500
C1253       C  0.24863637  0.47913189  0.13371273    -0.04100
C1254       C  0.24531475  0.46188733  0.14736479     0.02900
C1255       C  0.26023038  0.40493156  0.12218714     0.09800
C1256       C  0.28118999  0.44126206  0.09898216     0.35700
C1257       C  0.23368854  0.46909372  0.16396829     0.39100
C1258       C  0.23871734  0.39797504  0.11361458    -0.04400
C1259       C  0.23389602  0.37330415  0.11071054     0.02700
C1260       C  0.25063397  0.35512352  0.11655701    -0.04000
C1261       C  0.27314361  0.36251903  0.12400508    -0.00300
C1262       C  0.27781128  0.38738902  0.12676805    -0.02800
C1263       C  0.22095928  0.41638875  0.10843610     0.36400
C1264       C  0.29128926  0.34485572  0.12961967     0.40000
C1265       C  0.21121296  0.36712005  0.10209061     0.39200
C1266       C  0.30040866  0.39504142  0.13477943     0.36100
C1267       C  0.24630065  0.41927131  0.15772801     0.36800
C1268       C  0.26705252  0.49090925  0.10470583     0.40000
N1269       N  0.19293358  0.36255044  0.09537243    -0.38000
N1270       N  0.20689256  0.43112835  0.10437677    -0.39600
N1271       N  0.30588562  0.33091368  0.13415837    -0.37400
N1272       N  0.31845081  0.40120951  0.14111442    -0.39800
N1273       N  0.29069525  0.43543293  0.08582016    -0.39500
N1274       N  0.27084621  0.50528694  0.09381217    -0.37200
N1275       N  0.22446930  0.47519987  0.17715292    -0.38200
N1276       N  0.24155140  0.40464795  0.16822844    -0.39900
C1277       C  0.15389802  0.53223526  0.05081267    -0.04800
C1278       C  0.17225421  0.53984837  0.03887306     0.09300
C1279       C  0.19417715  0.54893838  0.04571722    -0.02200
C1280       C  0.19782907  0.55027291  0.06429153    -0.00500
C1281       C  0.17999929  0.54150210  0.07631161    -0.04100
C1282       C  0.15782635  0.53283193  0.06948200     0.02900
C1283       C  0.16953301  0.53684002  0.01904890     0.09800
C1284       C  0.21342751  0.55613172  0.03357380     0.35700
C1285       C  0.13958369  0.52335312  0.08154447     0.39100
C1286       C  0.16542453  0.55722416  0.00797845    -0.04400
C1287       C  0.16665867  0.55486705  0.98917342     0.02700
C1288       C  0.17205415  0.53206243  0.98130325    -0.04000
C1289       C  0.17533289  0.51154798  0.99245432    -0.00300
C1290       C  0.17393954  0.51391728  0.01119631    -0.02800
C1291       C  0.16111605  0.58084823  0.01603096     0.36400
C1292       C  0.18089702  0.48798194  0.98470482     0.40000
C1293       C  0.16441720  0.57629998  0.97804325     0.39200
C1294       C  0.17823561  0.49292168  0.02249491     0.36100
C1295       C  0.13121822  0.52322616  0.04381264     0.36800
C1296       C  0.21994469  0.56109502  0.07099168     0.40000
N1297       N  0.16282250  0.59345270  0.96919136    -0.38000
N1298       N  0.15785011  0.59968502  0.02252388    -0.39600
N1299       N  0.18554800  0.46914670  0.97866612    -0.37400
N1300       N  0.18163335  0.47622969  0.03155792    -0.39800
N1301       N  0.22881094  0.56173897  0.02388616    -0.39500
N1302       N  0.23751628  0.56979084  0.07634233    -0.37200
N1303       N  0.12507167  0.51567408  0.09117116    -0.38200
N1304       N  0.11313478  0.51600810  0.03819468    -0.39900
C1305       C  0.18521590  0.24336760  0.03962202    -0.04800
C1306       C  0.18992514  0.26209186  0.02723004     0.09300
C1307       C  0.19625796  0.28532198  0.03351361    -0.02200
C1308       C  0.19980309  0.28927143  0.05189079    -0.00500
C1309       C  0.19726031  0.26996872  0.06418798    -0.04100
C1310       C  0.18891648  0.24725546  0.05807580     0.02900
C1311       C  0.19159374  0.25679396  0.00760374     0.09800
C1312       C  0.20043496  0.30490301  0.02094669     0.35700
C1313       C  0.18587476  0.22735400  0.07052347     0.39100
C1314       C  0.17427331  0.26637257  0.99560465    -0.04400
C1315       C  0.17855177  0.26529201  0.97696404     0.02700
C1316       C  0.19980493  0.25367081  0.97018901    -0.04000
C1317       C  0.21587992  0.24208066  0.98230786    -0.00300
C1318       C  0.21219129  0.24430097  0.00086385    -0.02800
C1319       C  0.15250918  0.27816874  0.00255565     0.36400
C1320       C  0.23640805  0.22780248  0.97576660     0.40000
C1321       C  0.16181558  0.27754398  0.96499704     0.39200
C1322       C  0.23038409  0.23483136  0.01306893     0.36100
C1323       C  0.17769897  0.21977090  0.03324260     0.36800
C1324       C  0.20670715  0.31319374  0.05806770     0.40000
N1325       N  0.14843032  0.28748536  0.95555161    -0.38000
N1326       N  0.13517963  0.28756270  0.00817684    -0.39600
N1327       N  0.25273813  0.21637528  0.97055840    -0.37400
N1328       N  0.24493335  0.22742273  0.02281239    -0.39800
N1329       N  0.20368807  0.32052642  0.01092443    -0.39500
N1330       N  0.21232457  0.33226463  0.06291284    -0.37200
N1331       N  0.18349474  0.21145374  0.08045023    -0.38200
N1332       N  0.17177695  0.20092094  0.02813118    -0.39900
C1333       C  0.22442225  0.41241645  0.92646291    -0.04800
C1334       C  0.24775114  0.40880560  0.91896085     0.09300
C1335       C  0.26170380  0.42892560  0.91383253    -0.02200
C1336       C  0.25213531  0.45268306  0.91585211    -0.00500
C1337       C  0.22835966  0.45633004  0.92285206    -0.04100
C1338       C  0.21488278  0.43597662  0.92860822     0.02900
C1339       C  0.25694402  0.38341884  0.91669351     0.09800
C1340       C  0.28575479  0.42510812  0.90628546     0.35700
C1341       C  0.19132144  0.43898795  0.93720147     0.39100
C1342       C  0.25503683  0.37188328  0.89993156    -0.04400
C1343       C  0.25442934  0.34634635  0.89899305     0.02700
C1344       C  0.25469929  0.33263731  0.91489402    -0.04000
C1345       C  0.25974667  0.34403121  0.93130180    -0.00300
C1346       C  0.26165446  0.36943257  0.93208377    -0.02800
C1347       C  0.25161251  0.38629098  0.88393788     0.36400
C1348       C  0.26123060  0.32977420  0.94754728     0.40000
C1349       C  0.25122657  0.33435390  0.88192354     0.39200
C1350       C  0.26573993  0.38144159  0.94903484     0.36100
C1351       C  0.21002723  0.39167913  0.93188494     0.36800
C1352       C  0.26670009  0.47316611  0.91035169     0.40000
N1353       N  0.24875016  0.32471834  0.86832583    -0.38000
N1354       N  0.24902257  0.39790835  0.87121150    -0.39600
N1355       N  0.26224250  0.31842432  0.96052478    -0.37400
N1356       N  0.26887077  0.39115106  0.96252181    -0.39800
N1357       N  0.30488098  0.42206789  0.90014365    -0.39500
N1358       N  0.27842720  0.48948740  0.90606555    -0.37200
N1359       N  0.17251505  0.44112754  0.94403467    -0.38200
N1360       N  0.19867742  0.37510333  0.93619531    -0.39900
C1361       C  0.02433128  0.24150215  0.87266591    -0.04800
C1362       C  0.03966168  0.26024791  0.86674891     0.09300
C1363       C  0.02945116  0.28260776  0.86118733    -0.02200
C1364       C  0.00417530  0.28495433  0.85904738    -0.00500
C1365       C  0.98880065  0.26588419  0.86431603    -0.04100
C1366       C  0.99887008  0.24465279  0.87195298     0.02900
C1367       C  0.06603823  0.25546842  0.86322480     0.09800
C1368       C  0.04520915  0.30258492  0.85643166     0.35700
C1369       C  0.98298867  0.22544242  0.87792337     0.39100
C1370       C  0.07409762  0.25374146  0.84539452    -0.04400
C1371       C  0.09904246  0.25484458  0.84134665     0.02700
C1372       C  0.11654673  0.25474169  0.85535165    -0.04000
C1373       C  0.10811447  0.25251842  0.87320888    -0.00300
C1374       C  0.08305648  0.25447127  0.87715805    -0.02800
C1375       C  0.05643394  0.25185125  0.83109179     0.36400
C1376       C  0.12492404  0.24738075  0.88757896     0.40000
C1377       C  0.10582425  0.25752165  0.82270406     0.39200
C1378       C  0.07484271  0.25648647  0.89552340     0.36100
C1379       C  0.03471490  0.21843078  0.87821744     0.36800
C1380       C  0.99435702  0.30591665  0.84969833     0.40000
N1381       N  0.11085640  0.25942424  0.80774467    -0.38000
N1382       N  0.04234503  0.25025643  0.81974476    -0.39600
N1383       N  0.13794386  0.24291713  0.89923361    -0.37400
N1384       N  0.06827075  0.25832440  0.91016725    -0.39800
N1385       N  0.05787819  0.31843923  0.85269969    -0.39500
N1386       N  0.98673708  0.32255373  0.84203264    -0.37200
N1387       N  0.97023790  0.21019939  0.88273844    -0.38200
N1388       N  0.04305977  0.19999994  0.88257243    -0.39900
C1389       C  0.89453794  0.41423730  0.86891040    -0.04800
C1390       C  0.91416250  0.40165722  0.86072886     0.09300
C1391       C  0.93210305  0.41486504  0.85148024    -0.02200
C1392       C  0.93111084  0.44043038  0.85118637    -0.00500
C1393       C  0.91221283  0.45300080  0.86020307    -0.04100
C1394       C  0.89360870  0.43986870  0.86868769     0.02900
C1395       C  0.91612069  0.37448153  0.86156656     0.09800
C1396       C  0.95115291  0.40203824  0.84174774     0.35700
C1397       C  0.87305628  0.45273831  0.87656608     0.39100
C1398       C  0.90087326  0.35991109  0.85115957    -0.04400
C1399       C  0.90399065  0.33447872  0.85108276     0.02700
C1400       C  0.92472984  0.32345711  0.85918856    -0.04000
C1401       C  0.93914472  0.33813825  0.87053901    -0.00300
C1402       C  0.93418791  0.36332661  0.87213513    -0.02800
C1403       C  0.88251083  0.37115775  0.83994246     0.36400
C1404       C  0.95941939  0.32813769  0.88045358     0.40000
C1405       C  0.88501439  0.31979377  0.84332608     0.39200
C1406       C  0.94793617  0.37804115  0.88450725     0.36100
C1407       C  0.87479763  0.40079223  0.87684236     0.36800
C1408       C  0.94967109  0.45387582  0.84170874     0.40000
N1409       N  0.86973401  0.30822808  0.83720434    -0.38000
N1410       N  0.86801685  0.38016979  0.83089187    -0.39600
N1411       N  0.97565014  0.32078880  0.88869205    -0.37400
N1412       N  0.95868856  0.38979975  0.89447150    -0.39800
N1413       N  0.96621628  0.39172548  0.83390465    -0.39500
N1414       N  0.96446460  0.46470057  0.83423430    -0.37200
N1415       N  0.85662190  0.46300168  0.88279509    -0.38200
N1416       N  0.85875650  0.39001011  0.88275416    -0.39900
C1417       C  0.99963065  0.54123215  0.87439313    -0.04800
C1418       C  0.01425055  0.52035515  0.87663500     0.09300
C1419       C  0.00331188  0.49790208  0.88026741    -0.02200
C1420       C  0.97794585  0.49547562  0.87873105    -0.00500
C1421       C  0.96350044  0.51574633  0.87359142    -0.04100
C1422       C  0.97420507  0.53902477  0.87353631     0.02900
C1423       C  0.04060932  0.52092806  0.87201504     0.09800
C1424       C  0.01843413  0.47699657  0.88461336     0.35700
C1425       C  0.95901189  0.56069529  0.87296577     0.39100
C1426       C  0.05813162  0.52780024  0.88459046    -0.04400
C1427       C  0.08307358  0.52702869  0.88000881     0.02700
C1428       C  0.09064740  0.51880772  0.86289174    -0.04000
C1429       C  0.07269591  0.51253614  0.85021289    -0.00300
C1430       C  0.04789344  0.51378529  0.85474933    -0.02800
C1431       C  0.05038640  0.53557798  0.90224064     0.36400
C1432       C  0.07918032  0.50377980  0.83259331     0.40000
C1433       C  0.10061636  0.53578417  0.89275414     0.39200
C1434       C  0.02963812  0.50731759  0.84165336     0.36100
C1435       C  0.01083922  0.56469621  0.87195486     0.36800
C1436       C  0.96739926  0.47199666  0.88224284     0.40000
N1437       N  0.11405244  0.54324197  0.90318206    -0.38000
N1438       N  0.04411927  0.54180445  0.91630373    -0.39600
N1439       N  0.08291337  0.49685554  0.81826299    -0.37400
N1440       N  0.01504628  0.50217622  0.83128595    -0.39800
N1441       N  0.03043482  0.46031820  0.88815493    -0.39500
N1442       N  0.95965730  0.45309798  0.88564005    -0.37200
N1443       N  0.94689067  0.57799904  0.87287116    -0.38200
N1444       N  0.01982729  0.58339920  0.86997796    -0.39900
C1445       C  0.16826596  0.41614796  0.85494527    -0.04800
C1446       C  0.14673923  0.40320328  0.85823075     0.09300
C1447       C  0.12533382  0.41600763  0.86299729    -0.02200
C1448       C  0.12508122  0.44169204  0.86344846    -0.00500
C1449       C  0.14654626  0.45475534  0.85972799    -0.04100
C1450       C  0.16845242  0.44161168  0.85654361     0.02900
C1451       C  0.14724298  0.37597515  0.85736883     0.09800
C1452       C  0.10345448  0.40267332  0.86717555     0.35700
C1453       C  0.19142190  0.45420954  0.85522522     0.39100
C1454       C  0.16039162  0.36271516  0.87025413    -0.04400
C1455       C  0.16440340  0.33755242  0.86812121     0.02700
C1456       C  0.15450527  0.32514273  0.85332646    -0.04000
C1457       C  0.13929060  0.33813410  0.84139147    -0.00300
C1458       C  0.13622634  0.36353430  0.84312283    -0.02800
C1459       C  0.17066951  0.37536366  0.88539694     0.36400
C1460       C  0.12643160  0.32538663  0.82745351     0.40000
C1461       C  0.17988276  0.32520218  0.88082749     0.39200
C1462       C  0.12248927  0.37700987  0.82987339     0.36100
C1463       C  0.19011644  0.40320868  0.84931414     0.36800
C1464       C  0.10247503  0.45430091  0.86738307     0.40000
N1465       N  0.19242677  0.31658095  0.89146663    -0.38000
N1466       N  0.17889078  0.38574566  0.89730925    -0.39600
N1467       N  0.11589033  0.31542336  0.81637082    -0.37400
N1468       N  0.11154354  0.38781162  0.81931770    -0.39800
N1469       N  0.08600756  0.39198501  0.87042864    -0.39500
N1470       N  0.08410297  0.46364001  0.87078269    -0.37200
N1471       N  0.20972571  0.46425616  0.85419944    -0.38200
N1472       N  0.20734584  0.39271897  0.84465820    -0.39900
C1473       C  0.91057404  0.54659890  0.79861079    -0.04800
C1474       C  0.89359673  0.53208341  0.78954819     0.09300
C1475       C  0.87436238  0.52190291  0.79947337    -0.02200
C1476       C  0.87557613  0.52122340  0.81832937    -0.00500
C1477       C  0.89614679  0.53074629  0.82718842    -0.04100
C1478       C  0.91048076  0.54735081  0.81744097     0.02900
C1479       C  0.89833551  0.52401293  0.77060346     0.09800
C1480       C  0.85446241  0.51048953  0.79020223     0.35700
C1481       C  0.92303467  0.56671507  0.82649259     0.39100
C1482       C  0.90674712  0.50013324  0.76755536    -0.04400
C1483       C  0.91418836  0.49256008  0.75034032     0.02700
C1484       C  0.91180510  0.50822609  0.73518330    -0.04000
C1485       C  0.90431833  0.53281552  0.73872341    -0.00300
C1486       C  0.89695290  0.54023318  0.75611938    -0.02800
C1487       C  0.90871984  0.48336084  0.78250616     0.36400
C1488       C  0.90637935  0.55166677  0.72533477     0.40000
C1489       C  0.92612371  0.46901469  0.74904513     0.39200
C1490       C  0.88867155  0.56500211  0.75928086     0.36100
C1491       C  0.92905499  0.55959186  0.78877592     0.36800
C1492       C  0.85666161  0.50921960  0.82843448     0.40000
N1493       N  0.93542557  0.45008372  0.74864267    -0.38000
N1494       N  0.91009185  0.47000719  0.79439248    -0.39600
N1495       N  0.90787216  0.56713153  0.71493584    -0.37400
N1496       N  0.88233829  0.58482270  0.76180855    -0.39800
N1497       N  0.83856704  0.50143019  0.78276843    -0.39500
N1498       N  0.84162853  0.49956951  0.83651665    -0.37200
N1499       N  0.93281842  0.58254924  0.83349701    -0.38200
N1500       N  0.94382408  0.57003306  0.78097900    -0.39900
C1501       C  0.18038713  0.56536286  0.75894765    -0.04800
C1502       C  0.19282997  0.54859289  0.76984108     0.09300
C1503       C  0.20994922  0.53273614  0.76185142    -0.02200
C1504       C  0.21036758  0.52989466  0.74309572    -0.00500
C1505       C  0.19222382  0.54153172  0.73258993    -0.04100
C1506       C  0.18073709  0.56230466  0.74022540     0.02900
C1507       C  0.18289875  0.54273146  0.78797817     0.09800
C1508       C  0.22610887  0.51850264  0.77303763     0.35700
C1509       C  0.16931584  0.58036330  0.72891755     0.39100
C1510       C  0.16573802  0.52414675  0.78925312    -0.04400
C1511       C  0.15640517  0.51702701  0.80594075     0.02700
C1512       C  0.16358035  0.52897166  0.82203451    -0.04000
C1513       C  0.17815974  0.55016041  0.82009254    -0.00300
C1514       C  0.18887620  0.55598512  0.80336498    -0.02800
C1515       C  0.15722044  0.51250439  0.77305710     0.36400
C1516       C  0.17992366  0.56789637  0.83429183     0.40000
C1517       C  0.13972887  0.49681183  0.80596626     0.39200
C1518       C  0.20564796  0.57599420  0.80186495     0.36100
C1519       C  0.16593024  0.58455186  0.76708950     0.36800
C1520       C  0.23067491  0.51717599  0.73485062     0.40000
N1521       N  0.12747712  0.47990816  0.80535620    -0.38000
N1522       N  0.15025239  0.50353926  0.76012441    -0.39600
N1523       N  0.18127240  0.58246119  0.84538752    -0.37400
N1524       N  0.21908005  0.59192918  0.80068712    -0.39800
N1525       N  0.23906793  0.50721770  0.78198357    -0.39500
N1526       N  0.24706634  0.50710729  0.72838364    -0.37200
N1527       N  0.16091431  0.59521875  0.71985909    -0.38200
N1528       N  0.15453742  0.59994451  0.77366779    -0.39900
C1529       C  0.08184050  0.49152631  0.68821740    -0.04800
C1530       C  0.06544613  0.50850426  0.69555803     0.09300
C1531       C  0.07429909  0.52971590  0.70355128    -0.02200
C1532       C  0.09957844  0.53353098  0.70490354    -0.00500
C1533       C  0.11658443  0.51609819  0.69808618    -0.04100
C1534       C  0.10715774  0.49515685  0.68941756     0.02900
C1535       C  0.03879587  0.50330885  0.69593639     0.09800
C1536       C  0.05716231  0.54764998  0.71049421     0.35700
C1537       C  0.12270172  0.47653410  0.68180701     0.39100
C1538       C  0.02915771  0.48898888  0.70976424    -0.04400
C1539       C  0.00384807  0.48572118  0.71125039     0.02700
C1540       C  0.98782468  0.49625816  0.69856775    -0.04000
C1541       C  0.99777849  0.51015215  0.68445335    -0.00300
C1542       C  0.02314214  0.51346561  0.68307700    -0.02800
C1543       C  0.04543663  0.47790762  0.72268213     0.36400
C1544       C  0.98209780  0.52304102  0.67220361     0.40000
C1545       C  0.99456721  0.47237234  0.72642422     0.39200
C1546       C  0.03322022  0.52765423  0.66855603     0.36100
C1547       C  0.07244356  0.47003971  0.67947401     0.36800
C1548       C  0.10750963  0.55579838  0.71320958     0.40000
N1549       N  0.98788143  0.46218954  0.73898775    -0.38000
N1550       N  0.05850913  0.46901392  0.73288105    -0.39600
N1551       N  0.97023719  0.53408236  0.66237609    -0.37400
N1552       N  0.04129379  0.53884266  0.65692718    -0.39800
N1553       N  0.04342982  0.56194147  0.71592217    -0.39500
N1554       N  0.11288492  0.57372075  0.72011739    -0.37200
N1555       N  0.13344165  0.46094239  0.67495131    -0.38200
N1556       N  0.06496581  0.45294649  0.67249593    -0.39900
C1557       C  0.20771265  0.25392808  0.74427290    -0.04800
C1558       C  0.19288259  0.26250058  0.75830051     0.09300
C1559       C  0.17353051  0.27847961  0.75455816    -0.02200
C1560       C  0.16861868  0.28551042  0.73687168    -0.00500
C1561       C  0.18177441  0.27513263  0.72219076    -0.04100
C1562       C  0.20293271  0.26099653  0.72640780     0.02900
C1563       C  0.19851407  0.25714590  0.77742025     0.09800
C1564       C  0.15885532  0.28820758  0.76917756     0.35700
C1565       C  0.22200293  0.25680054  0.71335270     0.39100
C1566       C  0.21104401  0.27439802  0.78767540    -0.04400
C1567       C  0.20802055  0.27483432  0.80640202     0.02700
C1568       C  0.19187702  0.25831579  0.81470871    -0.04000
C1569       C  0.18584850  0.23723221  0.80488515    -0.00300
C1570       C  0.18753330  0.23743641  0.78610220    -0.02800
C1571       C  0.22549418  0.29266834  0.77879658     0.36400
C1572       C  0.18023881  0.21479251  0.81400747     0.40000
C1573       C  0.22081180  0.29270714  0.81690801     0.39200
C1574       C  0.17661114  0.21827780  0.77571985     0.36100
C1575       C  0.22837171  0.23836271  0.74836732     0.36800
C1576       C  0.15139972  0.30528320  0.73438066     0.40000
N1577       N  0.23091847  0.30707073  0.82526065    -0.38000
N1578       N  0.23708220  0.30715472  0.77164824    -0.39600
N1579       N  0.17606286  0.19678973  0.82130274    -0.37400
N1580       N  0.16770303  0.20308457  0.76741853    -0.39800
N1581       N  0.14728667  0.29588033  0.78087416    -0.39500
N1582       N  0.13796308  0.32148195  0.73329875    -0.37200
N1583       N  0.23767325  0.25360980  0.70322237    -0.38200
N1584       N  0.24478496  0.22586050  0.75164909    -0.39900
C1585       C  0.20218197  0.37850005  0.68152748    -0.04800
C1586       C  0.18222858  0.39331817  0.67684086     0.09300
C1587       C  0.16099063  0.38264500  0.67013523    -0.02200
C1588       C  0.15880049  0.35713510  0.66974348    -0.00500
C1589       C  0.17765699  0.34219144  0.67668709    -0.04100
C1590       C  0.20016164  0.35304386  0.68098205     0.02900
C1591       C  0.18248613  0.41980159  0.68112356     0.09800
C1592       C  0.14075939  0.39795905  0.66463544     0.35700
C1593       C  0.22127744  0.33803547  0.68503010     0.39100
C1594       C  0.18951461  0.43707883  0.66826825    -0.04400
C1595       C  0.18935335  0.46207754  0.67260549     0.02700
C1596       C  0.18210117  0.46985807  0.68984480    -0.04000
C1597       C  0.17476913  0.45232644  0.70260723    -0.00300
C1598       C  0.17526691  0.42746997  0.69830157    -0.02800
C1599       C  0.19659129  0.42904575  0.65054613     0.36400
C1600       C  0.16492683  0.45971590  0.71978596     0.40000
C1601       C  0.19613757  0.47976186  0.65921871     0.39200
C1602       C  0.16780540  0.40965445  0.71147719     0.36100
C1603       C  0.22425088  0.38951428  0.68804796     0.36800
C1604       C  0.13688987  0.34685216  0.66243753     0.40000
N1605       N  0.20139001  0.49383072  0.64844439    -0.38000
N1606       N  0.20217248  0.42252723  0.63640295    -0.39600
N1607       N  0.15691650  0.46525350  0.73351595    -0.37400
N1608       N  0.16188331  0.39542822  0.72194737    -0.39800
N1609       N  0.12444452  0.40992859  0.66024952    -0.39500
N1610       N  0.11937446  0.33928995  0.65612754    -0.37200
N1611       N  0.23807560  0.32605359  0.68831247    -0.38200
N1612       N  0.24174263  0.39835216  0.69340013    -0.39900
C1613       C  0.91303154  0.23025038  0.74760868    -0.04800
C1614       C  0.90891192  0.24934491  0.75972080     0.09300
C1615       C  0.90560712  0.27300477  0.75317878    -0.02200
C1616       C  0.90976376  0.27823325  0.73499780    -0.00500
C1617       C  0.91369908  0.25921459  0.72215078    -0.04100
C1618       C  0.91564175  0.23492955  0.72904266     0.02900
C1619       C  0.91488173  0.24642213  0.77919187     0.09800
C1620       C  0.89996943  0.29250990  0.76568551     0.35700
C1621       C  0.92317528  0.21462663  0.71794763     0.39100
C1622       C  0.93863119  0.25172920  0.78459421    -0.04400
C1623       C  0.94373880  0.25670418  0.80264770     0.02700
C1624       C  0.92588332  0.25295837  0.81637903    -0.04000
C1625       C  0.90177839  0.24752234  0.81057243    -0.00300
C1626       C  0.89657956  0.24393822  0.79219459    -0.02800
C1627       C  0.95758890  0.25408406  0.77110317     0.36400
C1628       C  0.88136173  0.24850809  0.82284073     0.40000
C1629       C  0.96649551  0.26887282  0.80615889     0.39200
C1630       C  0.87201197  0.23890232  0.78645424     0.36100
C1631       C  0.91598042  0.20579576  0.75455409     0.36800
C1632       C  0.91295591  0.30363187  0.73047494     0.40000
N1633       N  0.98469609  0.27863459  0.80859478    -0.38000
N1634       N  0.97251166  0.25591316  0.76026355    -0.39600
N1635       N  0.86473696  0.24940227  0.83235706    -0.37400
N1636       N  0.85242343  0.23485409  0.78187370    -0.39800
N1637       N  0.89538081  0.30792407  0.77569866    -0.39500
N1638       N  0.91543048  0.32397505  0.72715431    -0.37200
N1639       N  0.92919601  0.19792491  0.70955703    -0.38200
N1640       N  0.91827799  0.18630435  0.76010242    -0.39900
C1641       C  0.91821049  0.35670652  0.65573204    -0.04800
C1642       C  0.90500269  0.36968646  0.66877786     0.09300
C1643       C  0.88672088  0.35773711  0.67838951    -0.02200
C1644       C  0.88564820  0.33223995  0.67780247    -0.00500
C1645       C  0.90478207  0.31884136  0.66944411    -0.04100
C1646       C  0.91740629  0.33106230  0.65561288     0.02900
C1647       C  0.91247266  0.39446054  0.67434772     0.09800
C1648       C  0.86989724  0.37160444  0.68944271     0.35700
C1649       C  0.92772418  0.31799197  0.64058871     0.39100
C1650       C  0.90215692  0.41534009  0.66654359    -0.04400
C1651       C  0.90700673  0.43847193  0.67375635     0.02700
C1652       C  0.92331761  0.44089145  0.68822481    -0.04000
C1653       C  0.93429574  0.41986737  0.69552400    -0.00300
C1654       C  0.92864441  0.39676483  0.68877012    -0.02800
C1655       C  0.88619486  0.41289606  0.65131728     0.36400
C1656       C  0.95123501  0.42160170  0.71015844     0.40000
C1657       C  0.89363470  0.45929883  0.66704152     0.39200
C1658       C  0.93908102  0.37516264  0.69695998     0.36100
C1659       C  0.93348730  0.36962894  0.64320982     0.36800
C1660       C  0.86413007  0.32030172  0.68448917     0.40000
N1661       N  0.88211839  0.47528786  0.66152102    -0.38000
N1662       N  0.87363019  0.41095488  0.63906917    -0.39600
N1663       N  0.96492001  0.42174288  0.72181023    -0.37400
N1664       N  0.94732645  0.35795714  0.70352659    -0.39800
N1665       N  0.85654102  0.38280316  0.69823807    -0.39500
N1666       N  0.84684679  0.31095678  0.68986018    -0.37200
N1667       N  0.93580719  0.30789288  0.62832668    -0.38200
N1668       N  0.94573714  0.37994845  0.63324697    -0.39900
C1669       C  0.02383150  0.26223010  0.68399471    -0.04800
C1670       C  0.03409383  0.28276715  0.67573999     0.09300
C1671       C  0.01860949  0.30136219  0.66936871    -0.02200
C1672       C  0.99345763  0.30088983  0.67313771    -0.00500
C1673       C  0.98306964  0.28063369  0.68173127    -0.04100
C1674       C  0.99844286  0.26081303  0.68645671     0.02900
C1675       C  0.06116335  0.28612543  0.67571801     0.09800
C1676       C  0.02875198  0.32130916  0.65922165     0.35700
C1677       C  0.98831166  0.23889678  0.69404309     0.39100
C1678       C  0.07666026  0.27080439  0.66555365    -0.04400
C1679       C  0.10210077  0.27158572  0.66796372     0.02700
C1680       C  0.11233757  0.28938599  0.67912988    -0.04000
C1681       C  0.09686423  0.30635774  0.68779179    -0.00300
C1682       C  0.07145078  0.30401882  0.68679727    -0.02800
C1683       C  0.06631209  0.25418057  0.65275083     0.36400
C1684       C  0.10695637  0.32686145  0.69721343     0.40000
C1685       C  0.11748944  0.25299639  0.66001617     0.39200
C1686       C  0.05588802  0.31954682  0.69770590     0.36100
C1687       C  0.03946170  0.24276796  0.69042958     0.36800
C1688       C  0.97913431  0.32246538  0.66972195     0.40000
N1689       N  0.12963927  0.23774708  0.65403334    -0.38000
N1690       N  0.05780072  0.24120105  0.64243865    -0.39600
N1691       N  0.11449519  0.34395000  0.70415204    -0.37400
N1692       N  0.04341532  0.33183489  0.70641757    -0.39800
N1693       N  0.03682948  0.33712231  0.65103528    -0.39500
N1694       N  0.96898374  0.34059162  0.66720686    -0.37200
N1695       N  0.98028585  0.22147932  0.70022854    -0.38200
N1696       N  0.05192088  0.22721100  0.69551135    -0.39900
C1697       C  0.05548489  0.60127840  0.42758424    -0.04800
C1698       C  0.04550571  0.58939430  0.44254777     0.09300
C1699       C  0.06061113  0.58270400  0.45690733    -0.02200
C1700       C  0.08595384  0.58474625  0.45519528    -0.00500
C1701       C  0.09613397  0.59303563  0.43898773    -0.04100
C1702       C  0.08087849  0.60265055  0.42559083     0.02900
C1703       C  0.02073351  0.57894467  0.44127642     0.09800
C1704       C  0.05011919  0.57224467  0.47290831     0.35700
C1705       C  0.09115459  0.61186409  0.40909890     0.39100
C1706       C  0.01854936  0.55440358  0.43619182    -0.04400
C1707       C  0.99550603  0.54434592  0.43353774     0.02700
C1708       C  0.97427113  0.55859600  0.43650609    -0.04000
C1709       C  0.97655044  0.58316095  0.44191415    -0.00300
C1710       C  0.99977206  0.59330280  0.44416530    -0.02800
C1711       C  0.04024116  0.53962445  0.43324924     0.36400
C1712       C  0.95514279  0.59797313  0.44558021     0.40000
C1713       C  0.99393407  0.51964433  0.42685283     0.39200
C1714       C  0.00220117  0.61849176  0.44944048     0.36100
C1715       C  0.03964429  0.61091561  0.41383863     0.36800
C1716       C  0.10162618  0.57767175  0.46988289     0.40000
N1717       N  0.99277038  0.50001607  0.42141669    -0.38000
N1718       N  0.05766765  0.52804121  0.43105117    -0.39600
N1719       N  0.93810465  0.60985043  0.44851605    -0.37400
N1720       N  0.00419530  0.63861824  0.45356948    -0.39800
N1721       N  0.04179112  0.56385354  0.48567495    -0.39500
N1722       N  0.11421670  0.57217014  0.48156897    -0.37200
N1723       N  0.09930734  0.61908244  0.39588413    -0.38200
N1724       N  0.02698490  0.61888158  0.40297514    -0.39900
C1725       C  0.88247561  0.48580776  0.55416914    -0.04800
C1726       C  0.89599024  0.49794754  0.54088522     0.09300
C1727       C  0.91322915  0.51534215  0.54602180    -0.02200
C1728       C  0.91669721  0.52089525  0.56419184    -0.00500
C1729       C  0.90241161  0.50962052  0.57758054    -0.04100
C1730       C  0.88563923  0.49159779  0.57245812     0.02900
C1731       C  0.89157095  0.49381232  0.52132095     0.09800
C1732       C  0.92691951  0.52822694  0.53245416     0.35700
C1733       C  0.87083036  0.47973307  0.58584414     0.39100
C1734       C  0.87210072  0.50593524  0.51282134    -0.04400
C1735       C  0.87145758  0.50759280  0.49400782     0.02700
C1736       C  0.89043244  0.49734055  0.48351057    -0.04000
C1737       C  0.90862103  0.48317210  0.49198095    -0.00300
C1738       C  0.90905534  0.48130036  0.51082210    -0.02800
C1739       C  0.85351057  0.51799208  0.52350720     0.36400
C1740       C  0.92818422  0.47238242  0.48152578     0.40000
C1741       C  0.85160337  0.52058188  0.48546121     0.39200
C1742       C  0.92837603  0.46776230  0.51954147     0.36100
C1743       C  0.86485880  0.46782508  0.54894008     0.36800
C1744       C  0.93529445  0.53819437  0.56899135     0.40000
N1745       N  0.83576350  0.53093777  0.47864733    -0.38000
N1746       N  0.83869587  0.52754410  0.53208786    -0.39600
N1747       N  0.94389218  0.46386767  0.47322099    -0.37400
N1748       N  0.94378118  0.45700887  0.52655456    -0.39800
N1749       N  0.93774230  0.53850089  0.52160372    -0.39500
N1750       N  0.95009148  0.55202567  0.57275794    -0.37200
N1751       N  0.85900705  0.47024347  0.59652174    -0.38200
N1752       N  0.85070908  0.45354956  0.54475915    -0.39900
C1753       C  0.20051450  0.57267786  0.51457541    -0.04800
C1754       C  0.19178072  0.55068496  0.52163227     0.09300
C1755       C  0.18501105  0.53187243  0.50994979    -0.02200
C1756       C  0.18507397  0.53572434  0.49129557    -0.00500
C1757       C  0.19192992  0.55851498  0.48425803    -0.04100
C1758       C  0.20081320  0.57651159  0.49597646     0.02900
C1759       C  0.18784498  0.54841957  0.54135910     0.09800
C1760       C  0.17718099  0.50885296  0.51722628     0.35700
C1761       C  0.21021324  0.59911136  0.48893284     0.39100
C1762       C  0.16455774  0.55299542  0.54861570    -0.04400
C1763       C  0.16133523  0.55482054  0.56725367     0.02700
C1764       C  0.18158880  0.55291373  0.57882686    -0.04000
C1765       C  0.20461321  0.54651919  0.57154212    -0.00300
C1766       C  0.20760797  0.54408497  0.55286589    -0.02800
C1767       C  0.14405394  0.55694424  0.53680917     0.36400
C1768       C  0.22563901  0.54396419  0.58299785     0.40000
C1769       C  0.13707303  0.55889169  0.57444081     0.39200
C1770       C  0.23122917  0.53801258  0.54533961     0.36100
C1771       C  0.20830663  0.59177439  0.52654824     0.36800
C1772       C  0.17672016  0.51667229  0.47953105     0.40000
N1773       N  0.11772655  0.56211473  0.58015508    -0.38000
N1774       N  0.12773763  0.56013722  0.52737867    -0.39600
N1775       N  0.24250474  0.54195061  0.59206513    -0.37400
N1776       N  0.25002136  0.53313492  0.53925062    -0.39800
N1777       N  0.17093616  0.49049200  0.52305989    -0.39500
N1778       N  0.17009582  0.50144365  0.47014369    -0.37200
N1779       N  0.21774254  0.61710612  0.48331200    -0.38200
N1780       N  0.21452606  0.60694926  0.53613432    -0.39900
C1781       C  0.05917759  0.60305758  0.64679824    -0.04800
C1782       C  0.04877819  0.60860530  0.63009827     0.09300
C1783       C  0.06371173  0.61667987  0.61599086    -0.02200
C1784       C  0.08921927  0.61561030  0.61772674    -0.00500
C1785       C  0.09963177  0.60647316  0.63363824    -0.04100
C1786       C  0.08456071  0.60173791  0.64850214     0.02900
C1787       C  0.02346310  0.60058340  0.62651160     0.09800
C1788       C  0.05275491  0.62444514  0.59934156     0.35700
C1789       C  0.09518811  0.59462894  0.66540947     0.39100
C1790       C  0.00340273  0.61269235  0.63431163    -0.04400
C1791       C  0.98040849  0.60160990  0.63454781     0.02700
C1792       C  0.97718598  0.57862076  0.62630427    -0.04000
C1793       C  0.99706405  0.56766355  0.61708769    -0.00300
C1794       C  0.02007920  0.57844516  0.61742560    -0.02800
C1795       C  0.00677549  0.63610989  0.64277196     0.36400
C1796       C  0.99429125  0.54496900  0.60745241     0.40000
C1797       C  0.96073025  0.61331137  0.64436907     0.39200
C1798       C  0.04067076  0.56605173  0.60911473     0.36100
C1799       C  0.04376916  0.59725254  0.66194979     0.36800
C1800       C  0.10450719  0.62189923  0.60263542     0.40000
N1801       N  0.94515485  0.62266806  0.65232254    -0.38000
N1802       N  0.00949534  0.65476664  0.64954495    -0.39600
N1803       N  0.99226969  0.52680743  0.59984644    -0.37400
N1804       N  0.05708231  0.55623551  0.60247921    -0.39800
N1805       N  0.04397518  0.63062567  0.58606669    -0.39500
N1806       N  0.11662860  0.62695157  0.59055710    -0.37200
N1807       N  0.10377072  0.58892988  0.67885225    -0.38200
N1808       N  0.03143269  0.59285290  0.67405147    -0.39900
C1809       C  0.87632769  0.36108550  0.11745807    -0.04800
C1810       C  0.85160455  0.36547996  0.12116412     0.09300
C1811       C  0.83576561  0.34599084  0.12365996    -0.02200
C1812       C  0.84488167  0.32195229  0.12363661    -0.00500
C1813       C  0.87029417  0.31734409  0.12163015    -0.04100
C1814       C  0.88583736  0.33729528  0.11803805     0.02900
C1815       C  0.84307403  0.39094423  0.12379152     0.09800
C1816       C  0.81003054  0.35085562  0.12625505     0.35700
C1817       C  0.91176403  0.33394149  0.11511133     0.39100
C1818       C  0.83774136  0.40563180  0.10890464    -0.04400
C1819       C  0.83675977  0.43102366  0.11088451     0.02700
C1820       C  0.84113868  0.44152893  0.12771792    -0.04000
C1821       C  0.84309629  0.42670766  0.14297841    -0.00300
C1822       C  0.84424578  0.40132721  0.14098963    -0.02800
C1823       C  0.83492563  0.39465070  0.09145189     0.36400
C1824       C  0.84577975  0.43759453  0.16049470     0.40000
C1825       C  0.83219815  0.44644037  0.09554992     0.39200
C1826       C  0.84844129  0.38593915  0.15639879     0.36100
C1827       C  0.89208789  0.38130873  0.11321648     0.36800
C1828       C  0.82776544  0.30231426  0.12572976     0.40000
N1829       N  0.82834687  0.45875961  0.08335384    -0.38000
N1830       N  0.83269288  0.38580552  0.07754547    -0.39600
N1831       N  0.84797556  0.44627431  0.17446508    -0.37400
N1832       N  0.85178876  0.37349992  0.16860224    -0.39800
N1833       N  0.78950975  0.35484047  0.12824221    -0.39500
N1834       N  0.81392333  0.28678984  0.12729979    -0.37200
N1835       N  0.93246786  0.33149904  0.11285457    -0.38200
N1836       N  0.90458399  0.39742413  0.10979092    -0.39900
C1837       C  0.87597232  0.54758272  0.01299410    -0.04800
C1838       C  0.89813746  0.53806141  0.01942472     0.09300
C1839       C  0.91610861  0.53018428  0.00717592    -0.02200
C1840       C  0.91084773  0.52903170  0.98871468    -0.00500
C1841       C  0.88766066  0.53633734  0.98241721    -0.04100
C1842       C  0.87089818  0.54708528  0.99456035     0.02900
C1843       C  0.90067151  0.53273270  0.03896229     0.09800
C1844       C  0.93968652  0.52247946  0.01375368     0.35700
C1845       C  0.84826594  0.55755014  0.98811801     0.39100
C1846       C  0.89434062  0.50954430  0.04532345    -0.04400
C1847       C  0.89335488  0.50496822  0.06380234     0.02700
C1848       C  0.89683552  0.52404240  0.07617055    -0.04000
C1849       C  0.90482743  0.54683373  0.06982053    -0.00300
C1850       C  0.90715514  0.55097420  0.05123241    -0.02800
C1851       C  0.88743655  0.49073245  0.03281171     0.36400
C1852       C  0.90927457  0.56647775  0.08223066     0.40000
C1853       C  0.88895154  0.48046339  0.07006214     0.39200
C1854       C  0.91547196  0.57419555  0.04466826     0.36100
C1855       C  0.85786624  0.55678761  0.02549595     0.36800
C1856       C  0.92874885  0.51880681  0.97651670     0.40000
N1857       N  0.88579200  0.46084744  0.07501285    -0.38000
N1858       N  0.88167709  0.47588501  0.02279756    -0.39600
N1859       N  0.91278702  0.58218519  0.09212760    -0.37400
N1860       N  0.92229132  0.59267946  0.03943306    -0.39800
N1861       N  0.95853586  0.51654865  0.01908260    -0.39500
N1862       N  0.94311412  0.51058779  0.96685534    -0.37200
N1863       N  0.83028661  0.56600000  0.98294929    -0.38200
N1864       N  0.84345316  0.56409279  0.03550161    -0.39900
C1865       C  0.90468945  0.21497982  0.00382896    -0.04800
C1866       C  0.92260106  0.23029030  0.01089765     0.09300
C1867       C  0.93694118  0.24425134  0.99919258    -0.02200
C1868       C  0.93200509  0.24450960  0.98066183    -0.00500
C1869       C  0.91294643  0.23037200  0.97367408    -0.04100
C1870       C  0.89983642  0.21500376  0.98534028     0.02900
C1871       C  0.92363796  0.23421405  0.03072489     0.09800
C1872       C  0.95634143  0.25885956  0.00635006     0.35700
C1873       C  0.88104393  0.19935704  0.97843130     0.39100
C1874       C  0.93738212  0.21867149  0.04185042    -0.04400
C1875       C  0.93542526  0.22059267  0.06068558     0.02700
C1876       C  0.91968014  0.23818023  0.06850277    -0.04000
C1877       C  0.90704624  0.25465154  0.05718474    -0.00300
C1878       C  0.90886843  0.25248966  0.03846901    -0.02800
C1879       C  0.95294457  0.20023454  0.03383421     0.36400
C1880       C  0.89206682  0.27403733  0.06470261     0.40000
C1881       C  0.94862810  0.20360658  0.07189119     0.39200
C1882       C  0.89478450  0.26860230  0.02706786     0.36100
C1883       C  0.89070378  0.19975168  0.01577866     0.36800
C1884       C  0.94527361  0.26081376  0.96908112     0.40000
N1885       N  0.95917479  0.18999079  0.08080067    -0.38000
N1886       N  0.96535762  0.18554572  0.02737303    -0.39600
N1887       N  0.88007345  0.28945408  0.07066590    -0.37400
N1888       N  0.88351603  0.28133598  0.01793624    -0.39800
N1889       N  0.97196238  0.27036576  0.01204934    -0.39500
N1890       N  0.95571880  0.27395217  0.95984312    -0.37200
N1891       N  0.86601744  0.18682354  0.97305032    -0.38200
N1892       N  0.87969570  0.18760859  0.02539764    -0.39900
C1893       C  0.86441088  0.39805154  0.92596490    -0.04800
C1894       C  0.84256705  0.38818989  0.93245782     0.09300
C1895       C  0.82354653  0.40367911  0.93816447    -0.02200
C1896       C  0.82636817  0.42912464  0.93742999    -0.00500
C1897       C  0.84833620  0.43914734  0.93096921    -0.04100
C1898       C  0.86729417  0.42335682  0.92511861     0.02900
C1899       C  0.84033416  0.36126988  0.93324571     0.09800
C1900       C  0.80129206  0.39334513  0.94506289     0.35700
C1901       C  0.88973120  0.43291793  0.91783162     0.39100
C1902       C  0.85175713  0.34841794  0.94718716    -0.04400
C1903       C  0.85686888  0.32348250  0.94522621     0.02700
C1904       C  0.85107581  0.31151449  0.92910972    -0.04000
C1905       C  0.83694741  0.32373138  0.91614036    -0.00300
C1906       C  0.83132879  0.34859595  0.91836346    -0.02800
C1907       C  0.85964599  0.36124569  0.96301554     0.36400
C1908       C  0.82993537  0.31143777  0.89986355     0.40000
C1909       C  0.86866445  0.31026575  0.95961308     0.39200
C1910       C  0.81750617  0.36153483  0.90489029     0.36100
C1911       C  0.88395645  0.38195682  0.92001385     0.36800
C1912       C  0.80700166  0.44483976  0.94402744     0.40000
N1913       N  0.87800669  0.29963129  0.97105335    -0.38000
N1914       N  0.86600507  0.37148131  0.97562433    -0.39600
N1915       N  0.82437148  0.30169927  0.88683574    -0.37400
N1916       N  0.80633705  0.37187465  0.89421481    -0.39800
N1917       N  0.78355389  0.38505841  0.95058188    -0.39500
N1918       N  0.79155150  0.45736038  0.94933154    -0.37200
N1919       N  0.90768583  0.44036795  0.91202416    -0.38200
N1920       N  0.89934665  0.36901356  0.91518363    -0.39900
C1921       C  0.29452823  0.68691924  0.39306176    -0.04800
C1922       C  0.27761878  0.68775997  0.40721754     0.09300
C1923       C  0.27728143  0.70735440  0.41930945    -0.02200
C1924       C  0.29413120  0.72610418  0.41737214    -0.00500
C1925       C  0.31151971  0.72500409  0.40345562    -0.04100
C1926       C  0.31151380  0.70559419  0.39116083     0.02900
C1927       C  0.26036778  0.66768479  0.40982360     0.09800
C1928       C  0.26005115  0.70771276  0.43405850     0.35700
C1929       C  0.32870773  0.70509509  0.37641714     0.39100
C1930       C  0.26678006  0.64812143  0.42098759    -0.04400
C1931       C  0.24948324  0.63048697  0.42523861     0.02700
C1932       C  0.22598611  0.63197081  0.41772329    -0.04000
C1933       C  0.22005174  0.65105100  0.40581163    -0.00300
C1934       C  0.23712730  0.66913497  0.40215586    -0.02800
C1935       C  0.29109224  0.64647343  0.42833456     0.36400
C1936       C  0.19666082  0.65186686  0.39693988     0.40000
C1937       C  0.25560183  0.61161606  0.43803189     0.39200
C1938       C  0.23073573  0.68949784  0.39075363     0.36100
C1939       C  0.29469012  0.66659354  0.38073839     0.36800
C1940       C  0.29423168  0.74589258  0.43018982     0.40000
N1941       N  0.26045476  0.59665261  0.44829721    -0.38000
N1942       N  0.31052834  0.64513888  0.43409467    -0.39600
N1943       N  0.17805683  0.65248279  0.38981124    -0.37400
N1944       N  0.22563257  0.70580991  0.38173772    -0.39800
N1945       N  0.24635497  0.70778115  0.44583271    -0.39500
N1946       N  0.29423853  0.76162067  0.44044662    -0.37200
N1947       N  0.34239196  0.70482766  0.36463661    -0.38200
N1948       N  0.29483313  0.65031241  0.37096236    -0.39900
C1949       C  0.30086652  0.16233232  0.41987999    -0.04800
C1950       C  0.32134296  0.16993266  0.41010107     0.09300
C1951       C  0.32120673  0.19262751  0.40145942    -0.02200
C1952       C  0.30035668  0.20769427  0.40243854    -0.00500
C1953       C  0.27982050  0.20006576  0.41230099    -0.04100
C1954       C  0.28051946  0.17769299  0.42151131     0.02900
C1955       C  0.34279195  0.15342330  0.40906887     0.09800
C1956       C  0.34225979  0.20004875  0.39120940     0.35700
C1957       C  0.26068709  0.17078503  0.43325701     0.39100
C1958       C  0.34461449  0.13660251  0.39494513    -0.04400
C1959       C  0.36046447  0.11654543  0.39641790     0.02700
C1960       C  0.37404521  0.11308644  0.41218223    -0.04000
C1961       C  0.37388977  0.13110121  0.42556928    -0.00300
C1962       C  0.35836886  0.15144176  0.42390720    -0.02800
C1963       C  0.32878163  0.13892521  0.37959380     0.36400
C1964       C  0.38782382  0.12759672  0.44177031     0.40000
C1965       C  0.36212102  0.09892118  0.38202076     0.39200
C1966       C  0.35691231  0.16938305  0.43807470     0.36100
C1967       C  0.30046183  0.13826885  0.42779400     0.36800
C1968       C  0.29983668  0.23055056  0.39283610     0.40000
N1969       N  0.36351752  0.08486427  0.37055590    -0.38000
N1970       N  0.31605293  0.14074077  0.36740442    -0.39600
N1971       N  0.39880371  0.12472737  0.45475129    -0.37400
N1972       N  0.35561791  0.18372429  0.44934931    -0.39800
N1973       N  0.35905220  0.20585520  0.38296831    -0.39500
N1974       N  0.29948301  0.24877984  0.38515955    -0.37200
N1975       N  0.24498016  0.16542613  0.44274215    -0.38200
N1976       N  0.30006573  0.11897188  0.43388047    -0.39900
C1977       C  0.34594097  0.94702672  0.39866119    -0.04800
C1978       C  0.34297479  0.93227623  0.41391180     0.09300
C1979       C  0.34276612  0.94284041  0.43108224    -0.02200
C1980       C  0.34959171  0.96717616  0.43315250    -0.00500
C1981       C  0.35554584  0.98104146  0.41799964    -0.04100
C1982       C  0.35162208  0.97167778  0.40075407     0.02900
C1983       C  0.34538442  0.90546958  0.41220119     0.09800
C1984       C  0.33787061  0.92797119  0.44664464     0.35700
C1985       C  0.35558596  0.98683549  0.38519450     0.39100
C1986       C  0.36747575  0.89426418  0.41722938    -0.04400
C1987       C  0.37082614  0.86918319  0.41499199     0.02700
C1988       C  0.35228563  0.85507680  0.40718681    -0.04000
C1989       C  0.33009055  0.86639260  0.40217780    -0.00300
C1990       C  0.32657050  0.89151072  0.40495452    -0.02800
C1991       C  0.38731839  0.90876083  0.42403531     0.36400
C1992       C  0.31117712  0.85258707  0.39355022     0.40000
C1993       C  0.39349904  0.85812868  0.42092493     0.39200
C1994       C  0.30369104  0.90312465  0.40029405     0.36100
C1995       C  0.34551920  0.93641871  0.38092754     0.36800
C1996       C  0.35178287  0.97758290  0.45085039     0.40000
N1997       N  0.41158096  0.84934194  0.42559398    -0.38000
N1998       N  0.40319540  0.92023199  0.42938285    -0.39600
N1999       N  0.29604565  0.84170336  0.38659810    -0.37400
N2000       N  0.28548971  0.91250637  0.39658688    -0.39800
N2001       N  0.33409403  0.91600609  0.45902304    -0.39500
N2002       N  0.35347439  0.98582722  0.46499761    -0.37200
N2003       N  0.35858664  0.99908644  0.37285287    -0.38200
N2004       N  0.34527289  0.92799892  0.36676704    -0.39900
C2005       C  0.24760260  0.67409171  0.64474209    -0.04800
C2006       C  0.26416842  0.67427170  0.63034982     0.09300
C2007       C  0.26382831  0.65554561  0.61752578    -0.02200
C2008       C  0.24658032  0.63693826  0.61881843    -0.00500
C2009       C  0.22998130  0.63650267  0.63333670    -0.04100
C2010       C  0.23065878  0.65519001  0.64633812     0.02900
C2011       C  0.28119338  0.69490869  0.62799677     0.09800
C2012       C  0.28099115  0.65578412  0.60274620     0.35700
C2013       C  0.21406837  0.65503756  0.66144609     0.39100
C2014       C  0.30334025  0.69532202  0.63734242    -0.04400
C2015       C  0.32016842  0.71386476  0.63397987     0.02700
C2016       C  0.31496488  0.73197834  0.62111351    -0.04000
C2017       C  0.29236784  0.73196975  0.61222644    -0.00300
C2018       C  0.27547097  0.71357556  0.61579459    -0.02800
C2019       C  0.30873881  0.67669853  0.65046292     0.36400
C2020       C  0.28672317  0.75032712  0.59895089     0.40000
C2021       C  0.34249068  0.71471682  0.64420394     0.39200
C2022       C  0.25209284  0.71376577  0.60692749     0.36100
C2023       C  0.24773859  0.69369274  0.65769105     0.36800
C2024       C  0.24498253  0.61925035  0.60449883     0.40000
N2025       N  0.36026136  0.71553812  0.65236880    -0.38000
N2026       N  0.31303119  0.66195450  0.66102198    -0.39600
N2027       N  0.28209273  0.76492261  0.58835501    -0.37400
N2028       N  0.23337623  0.71389083  0.59996072    -0.39800
N2029       N  0.29468454  0.65605112  0.59097557    -0.39500
N2030       N  0.24359867  0.60533560  0.59297027    -0.37200
N2031       N  0.20081198  0.65501245  0.67348854    -0.38200
N2032       N  0.24788006  0.70939351  0.66796522    -0.39900
C2033       C  0.41304450  0.76566419  0.52882344    -0.04800
C2034       C  0.39238089  0.76352754  0.51786600     0.09300
C2035       C  0.36927701  0.76135528  0.52583431    -0.02200
C2036       C  0.36652696  0.76347732  0.54447527    -0.00500
C2037       C  0.38688285  0.76819198  0.55543898    -0.04100
C2038       C  0.41035017  0.76809705  0.54758395     0.02900
C2039       C  0.39413786  0.76630205  0.49795646     0.09800
C2040       C  0.34813833  0.75757545  0.51470175     0.35700
C2041       C  0.43161677  0.77168506  0.55855948     0.39100
C2042       C  0.39879936  0.74613339  0.48677625    -0.04400
C2043       C  0.39687870  0.74843677  0.46798637     0.02700
C2044       C  0.38947320  0.77080985  0.46029422    -0.04000
C2045       C  0.38567860  0.79119869  0.47160999    -0.00300
C2046       C  0.38832497  0.78897628  0.49025567    -0.02800
C2047       C  0.40437994  0.72275313  0.49471708     0.36400
C2048       C  0.37854389  0.81456307  0.46420927     0.40000
C2049       C  0.40108210  0.72735881  0.45674511     0.39200
C2050       C  0.38414719  0.80993102  0.50169376     0.36100
C2051       C  0.43697954  0.76584726  0.52069141     0.36800
C2052       C  0.34254223  0.76072476  0.55231615     0.40000
N2053       N  0.40449504  0.71051516  0.44779219    -0.38000
N2054       N  0.40871488  0.70409461  0.50111653    -0.39600
N2055       N  0.37257327  0.83316664  0.45843313    -0.37400
N2056       N  0.38080452  0.82659023  0.51084377    -0.39800
N2057       N  0.33129323  0.75456389  0.50582283    -0.39500
N2058       N  0.32342069  0.75854441  0.55855504    -0.37200
N2059       N  0.44866133  0.77450854  0.56727160    -0.38200
N2060       N  0.45607641  0.76572997  0.51416057    -0.39900
C2061       C  0.28525407  0.16150972  0.63753698    -0.04800
C2062       C  0.30543952  0.16738213  0.62679533     0.09300
C2063       C  0.30490961  0.18861866  0.61632333    -0.02200
C2064       C  0.28397559  0.20365199  0.61618582    -0.00500
C2065       C  0.26324716  0.19731887  0.62640735    -0.04100
C2066       C  0.26417377  0.17627603  0.63727925     0.02900
C2067       C  0.32643992  0.15003105  0.62551599     0.09800
C2068       C  0.32573285  0.19456190  0.60528386     0.35700
C2069       C  0.24351087  0.16968179  0.64829113     0.39100
C2070       C  0.32726524  0.13291212  0.61150894    -0.04400
C2071       C  0.34549001  0.11479737  0.61118639     0.02700
C2072       C  0.36289588  0.11353705  0.62497383    -0.04000
C2073       C  0.36276826  0.13134843  0.63855235    -0.00300
C2074       C  0.34450741  0.14956441  0.63882307    -0.02800
C2075       C  0.30879019  0.13343401  0.59775670     0.36400
C2076       C  0.38049252  0.13011480  0.65279257     0.40000
C2077       C  0.34631292  0.09735616  0.59663481     0.39200
C2078       C  0.34370387  0.16732673  0.65311575     0.36100
C2079       C  0.28607704  0.13988582  0.64859682     0.36800
C2080       C  0.28346206  0.22488777  0.60473256     0.40000
N2081       N  0.34706838  0.08342121  0.58506463    -0.38000
N2082       N  0.29402885  0.13383430  0.58681027    -0.39600
N2083       N  0.39460238  0.12909518  0.66417997    -0.37400
N2084       N  0.34294437  0.18147856  0.66453890    -0.39800
N2085       N  0.34232300  0.19921482  0.59642955    -0.39500
N2086       N  0.28307399  0.24182040  0.59559115    -0.37200
N2087       N  0.22704343  0.16427411  0.65703151    -0.38200
N2088       N  0.28688115  0.12267659  0.65743901    -0.39900
C2089       C  0.44772320  0.02297841  0.54467393    -0.04800
C2090       C  0.44486306  0.04430599  0.53446057     0.09300
C2091       C  0.44441898  0.06698307  0.54322649    -0.02200
C2092       C  0.44370347  0.06821792  0.56210866    -0.00500
C2093       C  0.44320154  0.04660684  0.57242365    -0.04100
C2094       C  0.44727233  0.02412532  0.56355402     0.02900
C2095       C  0.43904691  0.04285706  0.51484639     0.09800
C2096       C  0.44355815  0.08905738  0.53269550     0.35700
C2097       C  0.45112796  0.00210102  0.57381496     0.39100
C2098       C  0.41467987  0.04039366  0.50955576    -0.04400
C2099       C  0.40834099  0.04074334  0.49127685     0.02700
C2100       C  0.42654578  0.04292862  0.47775669    -0.04000
C2101       C  0.45118820  0.04472291  0.48327199    -0.00300
C2102       C  0.45726581  0.04490905  0.50166924    -0.02800
C2103       C  0.39598310  0.03755056  0.52313962     0.36400
C2104       C  0.47051892  0.04694695  0.47017840     0.40000
C2105       C  0.38283124  0.03882791  0.48674574     0.39200
C2106       C  0.48234166  0.04742849  0.50712058     0.36100
C2107       C  0.45022554  0.99974933  0.53569723     0.36800
C2108       C  0.44237177  0.09180651  0.57067838     0.40000
N2109       N  0.36238292  0.03751969  0.48339703    -0.38000
N2110       N  0.38124559  0.03517313  0.53405416    -0.39600
N2111       N  0.48601313  0.04866189  0.45976788    -0.37400
N2112       N  0.50235477  0.04949091  0.51146779    -0.39800
N2113       N  0.44296475  0.10661104  0.52422183    -0.39500
N2114       N  0.44148288  0.11070560  0.57743215    -0.37200
N2115       N  0.45443100  0.98456690  0.58200174    -0.38200
N2116       N  0.45226177  0.98120912  0.52853274    -0.39900
C2117       C  0.34075764  0.95842330  0.60406434    -0.04800
C2118       C  0.34190376  0.94156907  0.61819767     0.09300
C2119       C  0.34726854  0.94967584  0.63558341    -0.02200
C2120       C  0.35545497  0.97352041  0.63818002    -0.00500
C2121       C  0.35891682  0.98893598  0.62334944    -0.04100
C2122       C  0.34972765  0.98204133  0.60649953     0.02900
C2123       C  0.34369769  0.91510418  0.61407392     0.09800
C2124       C  0.34602557  0.93302461  0.65054730     0.35700
C2125       C  0.35166032  0.99814911  0.59125594     0.39100
C2126       C  0.36537120  0.90598932  0.60635073    -0.04400
C2127       C  0.36892227  0.88085917  0.60414689     0.02700
C2128       C  0.35094731  0.86434455  0.61001781    -0.04000
C2129       C  0.32842399  0.87376799  0.61656103    -0.00300
C2130       C  0.32493351  0.89908353  0.61860556    -0.02800
C2131       C  0.38440167  0.92258952  0.60095785     0.36400
C2132       C  0.30883535  0.85771660  0.62156093     0.40000
C2133       C  0.39116306  0.87234529  0.59556941     0.39200
C2134       C  0.30217086  0.90874248  0.62558595     0.36100
C2135       C  0.33242602  0.95064311  0.58665828     0.36800
C2136       C  0.36080865  0.98209199  0.65601715     0.40000
N2137       N  0.40894775  0.86574824  0.58872684    -0.38000
N2138       N  0.39942887  0.93587774  0.59657176    -0.39600
N2139       N  0.29303797  0.84505297  0.62546012    -0.37400
N2140       N  0.28403350  0.91648660  0.63116600    -0.39800
N2141       N  0.34498945  0.91976036  0.66249760    -0.39500
N2142       N  0.36484415  0.98920949  0.67021581    -0.37200
N2143       N  0.35328945  0.01095019  0.57907103    -0.38200
N2144       N  0.32573455  0.94441052  0.57278685    -0.39900
C2145       C  0.41441928  0.88526831  0.16308392    -0.04800
C2146       C  0.39399214  0.89726009  0.17042597     0.09300
C2147       C  0.37190367  0.88486950  0.17212621    -0.02200
C2148       C  0.37124860  0.85972230  0.16879421    -0.00500
C2149       C  0.39293347  0.84675741  0.16468787    -0.04100
C2150       C  0.41354267  0.86023537  0.15935976     0.02900
C2151       C  0.39611853  0.92285860  0.17652938     0.09800
C2152       C  0.35020667  0.89780155  0.17798378     0.35700
C2153       C  0.43359243  0.84924278  0.14961061     0.39100
C2154       C  0.39237372  0.94204082  0.16444482    -0.04400
C2155       C  0.39693244  0.96610859  0.16970507     0.02700
C2156       C  0.40587223  0.97106559  0.18700597    -0.04000
C2157       C  0.40833906  0.95173833  0.19943261    -0.00300
C2158       C  0.40356164  0.92772615  0.19412302    -0.02800
C2159       C  0.38438757  0.93681192  0.14642951     0.36400
C2160       C  0.41643530  0.95614515  0.21754973     0.40000
C2161       C  0.39154421  0.98570260  0.15739385     0.39200
C2162       C  0.40710360  0.90780165  0.20656868     0.36100
C2163       C  0.43674363  0.89853158  0.16020271     0.36800
C2164       C  0.34821747  0.84723089  0.16906541     0.40000
N2165       N  0.38681195  0.00099156  0.14737014    -0.38000
N2166       N  0.37810272  0.93249311  0.13206432    -0.39600
N2167       N  0.42271992  0.95957072  0.23205486    -0.37400
N2168       N  0.40996778  0.89188321  0.21644355    -0.39800
N2169       N  0.33291316  0.90815182  0.18268439    -0.39500
N2170       N  0.32974509  0.83742342  0.16891439    -0.37200
N2171       N  0.44975293  0.84124077  0.14149028    -0.38200
N2172       N  0.45456448  0.90911181  0.15807506    -0.39900
C2173       C  0.54484937  0.78989228  0.19237202    -0.04800
C2174       C  0.53435554  0.78289480  0.17601119     0.09300
C2175       C  0.54924791  0.77205291  0.16276877    -0.02200
C2176       C  0.57385316  0.76653736  0.16635662    -0.00500
C2177       C  0.58478982  0.77490503  0.18228588    -0.04100
C2178       C  0.57010830  0.78766501  0.19490189     0.02900
C2179       C  0.50755242  0.78641924  0.17304403     0.09800
C2180       C  0.53922004  0.76680250  0.14534178     0.35700
C2181       C  0.58084192  0.79971264  0.21014075     0.39100
C2182       C  0.49680908  0.80977373  0.17458281    -0.04400
C2183       C  0.47140310  0.81218258  0.17615210     0.02700
C2184       C  0.45646987  0.79230222  0.17209775    -0.04000
C2185       C  0.46721231  0.76956726  0.16813316    -0.00300
C2186       C  0.49243267  0.76621142  0.17013995    -0.02800
C2187       C  0.51187935  0.83119643  0.17504563     0.36400
C2188       C  0.45220671  0.74930947  0.16287652     0.40000
C2189       C  0.46105548  0.83420620  0.18375989     0.39200
C2190       C  0.50244905  0.74180382  0.17059730     0.36100
C2191       C  0.52961229  0.79909372  0.20681497     0.36800
C2192       C  0.58730088  0.75150443  0.15379501     0.40000
N2193       N  0.45310014  0.85165134  0.19025937    -0.38000
N2194       N  0.52394932  0.84825855  0.17524626    -0.39600
N2195       N  0.44037954  0.73317086  0.15844412    -0.37400
N2196       N  0.51046663  0.72233851  0.17123898    -0.39800
N2197       N  0.53091424  0.76282387  0.13150860    -0.39500
N2198       N  0.59745135  0.73930579  0.14355879    -0.37200
N2199       N  0.58918083  0.80951631  0.22228833    -0.38200
N2200       N  0.51741784  0.80640734  0.21829447    -0.39900
C2201       C  0.64012764  0.85927655  0.16427932    -0.04800
C2202       C  0.66245349  0.86857976  0.17015599     0.09300
C2203       C  0.68196840  0.85251585  0.17359298    -0.02200
C2204       C  0.67803388  0.82731281  0.17353609    -0.00500
C2205       C  0.65414402  0.81834732  0.17191603    -0.04100
C2206       C  0.63564869  0.83420915  0.16558574     0.02900
C2207       C  0.66339031  0.89434364  0.17626222     0.09800
C2208       C  0.70543865  0.86184646  0.17872233     0.35700
C2209       C  0.61154994  0.82564090  0.16147904     0.39100
C2210       C  0.65000812  0.90110801  0.19164956    -0.04400
C2211       C  0.64936826  0.92539810  0.19729525     0.02700
C2212       C  0.66332498  0.94299783  0.18826735    -0.04000
C2213       C  0.67679175  0.93624624  0.17288285    -0.00300
C2214       C  0.67668181  0.91195385  0.16682257    -0.02800
C2215       C  0.63687195  0.88292894  0.20178172     0.36400
C2216       C  0.69105190  0.95409470  0.16340710     0.40000
C2217       C  0.63343343  0.93231768  0.21198927     0.39200
C2218       C  0.69034685  0.90500764  0.15099451     0.36100
C2219       C  0.62096770  0.87592773  0.15870949     0.36800
C2220       C  0.69835442  0.81060473  0.17582624     0.40000
N2221       N  0.62056579  0.93759419  0.22365545    -0.38000
N2222       N  0.62637795  0.86842170  0.20978275    -0.39600
N2223       N  0.70245583  0.96819702  0.15570034    -0.37400
N2224       N  0.70141346  0.89940475  0.13844593    -0.39800
N2225       N  0.72417757  0.86923506  0.18287589    -0.39500
N2226       N  0.71447808  0.79717107  0.17760945    -0.37200
N2227       N  0.59212521  0.81971685  0.15775308    -0.38200
N2228       N  0.60571377  0.88926967  0.15437787    -0.39900
C2229       C  0.57120422  0.99171430  0.17536668    -0.04800
C2230       C  0.55792190  0.00984087  0.18458025     0.09300
C2231       C  0.57048555  0.02801643  0.19392844    -0.02200
C2232       C  0.59598846  0.02721146  0.19474628    -0.00500
C2233       C  0.60898091  0.00640031  0.18858945    -0.04100
C2234       C  0.59651011  0.98928506  0.17792023     0.02900
C2235       C  0.53073308  0.00948318  0.18480039     0.09800
C2236       C  0.55721430  0.04709464  0.20332603     0.35700
C2237       C  0.60895220  0.96868504  0.16988391     0.39100
C2238       C  0.51835019  0.99073608  0.19379669    -0.04400
C2239       C  0.49278625  0.99127394  0.19495763     0.02700
C2240       C  0.47961423  0.01139020  0.18830364    -0.04000
C2241       C  0.49199913  0.03002397  0.17919718    -0.00300
C2242       C  0.51732798  0.02848724  0.17682039    -0.02800
C2243       C  0.53195295  0.97149516  0.20260702     0.36400
C2244       C  0.47920043  0.05176419  0.17343699     0.40000
C2245       C  0.48021004  0.97124335  0.20324926     0.39200
C2246       C  0.52987943  0.04711156  0.16690088     0.36100
C2247       C  0.55859952  0.97531075  0.16349757     0.36800
C2248       C  0.60875675  0.04790300  0.20198199     0.40000
N2249       N  0.47078308  0.95475460  0.20970752    -0.38000
N2250       N  0.54280577  0.95620833  0.20968909    -0.39600
N2251       N  0.46965378  0.06958203  0.16903241    -0.37400
N2252       N  0.54029492  0.06202473  0.15932383    -0.39800
N2253       N  0.54666507  0.06233826  0.21079107    -0.39500
N2254       N  0.61893199  0.06426699  0.20793992    -0.37200
N2255       N  0.61824486  0.95218290  0.16300269    -0.38200
N2256       N  0.54845900  0.96240940  0.15395997    -0.39900
C2257       C  0.44871776  0.03302896  0.28596063    -0.04800
C2258       C  0.43137789  0.05148362  0.28306579     0.09300
C2259       C  0.42348738  0.06586219  0.29755783    -0.02200
C2260       C  0.43163305  0.06068954  0.31513150    -0.00500
C2261       C  0.44625838  0.03966086  0.31858417    -0.04100
C2262       C  0.45665173  0.02761643  0.30338555     0.02900
C2263       C  0.42173560  0.05508501  0.26454253     0.09800
C2264       C  0.40700988  0.08606660  0.29428234     0.35700
C2265       C  0.47576867  0.00950379  0.30520381     0.39100
C2266       C  0.40141551  0.04187296  0.25890725    -0.04400
C2267       C  0.39709453  0.03849101  0.24050041     0.02700
C2268       C  0.41456124  0.04624110  0.22777165    -0.04000
C2269       C  0.43096969  0.06447662  0.23339384    -0.00300
C2270       C  0.43509047  0.06826462  0.25179626    -0.02800
C2271       C  0.38578652  0.03067832  0.27209951     0.36400
C2272       C  0.44499152  0.07791500  0.22034678     0.40000
C2273       C  0.37387930  0.02912045  0.23492121     0.39200
C2274       C  0.45418869  0.08429401  0.25761730     0.36100
C2275       C  0.45798011  0.01903135  0.27085488     0.36800
C2276       C  0.42741495  0.07888568  0.32877453     0.40000
N2277       N  0.35520043  0.02170872  0.23063404    -0.38000
N2278       N  0.37345119  0.02175300  0.28272537    -0.39600
N2279       N  0.45621248  0.08860010  0.20994340    -0.37400
N2280       N  0.46943227  0.09711815  0.26224109    -0.39800
N2281       N  0.39379863  0.10212861  0.29159579    -0.39500
N2282       N  0.42417963  0.09386834  0.33940121    -0.37200
N2283       N  0.49091361  0.99482780  0.30581068    -0.38200
N2284       N  0.46523715  0.00789776  0.25880702    -0.39900
C2285       C  0.40584668  0.78642444  0.26903284    -0.04800
C2286       C  0.38597364  0.77165432  0.26507102     0.09300
C2287       C  0.37448267  0.75875580  0.27885811    -0.02200
C2288       C  0.38289663  0.76054050  0.29669208    -0.00500
C2289       C  0.40204098  0.77675551  0.30115516    -0.04100
C2290       C  0.41450834  0.78816698  0.28662693     0.02900
C2291       C  0.37937196  0.76825206  0.24587573     0.09800
C2292       C  0.35413510  0.74334828  0.27454790     0.35700
C2293       C  0.43713281  0.80099567  0.28919699     0.39100
C2294       C  0.39318055  0.75209259  0.23523243    -0.04400
C2295       C  0.39391522  0.75519758  0.21654700     0.02700
C2296       C  0.38213156  0.77561616  0.20862194    -0.04000
C2297       C  0.36366798  0.78738380  0.21885867    -0.00300
C2298       C  0.36297409  0.78437604  0.23758595    -0.02800
C2299       C  0.40819788  0.73363728  0.24368112     0.36400
C2300       C  0.34413087  0.80065793  0.21029993     0.40000
C2301       C  0.40801593  0.73822617  0.20575657     0.39200
C2302       C  0.34621918  0.79858938  0.24844198     0.36100
C2303       C  0.41761014  0.79983974  0.25472112     0.36800
C2304       C  0.37363950  0.74328973  0.30953629     0.40000
N2305       N  0.41938503  0.72464010  0.19728397    -0.38000
N2306       N  0.42023373  0.71898850  0.25045668    -0.39600
N2307       N  0.32810445  0.81106462  0.20378393    -0.37400
N2308       N  0.33281748  0.80986605  0.25714506    -0.39800
N2309       N  0.33778024  0.73122999  0.27108426    -0.39500
N2310       N  0.36616973  0.72910306  0.31948817    -0.37200
N2311       N  0.45502626  0.81156471  0.29087150    -0.38200
N2312       N  0.42674262  0.81053444  0.24326171    -0.39900
C2313       C  0.42277811  0.87353342  0.36121064    -0.04800
C2314       C  0.44365563  0.88536323  0.35462710     0.09300
C2315       C  0.46122928  0.87163839  0.34494949    -0.02200
C2316       C  0.45735125  0.84677037  0.34133873    -0.00500
C2317       C  0.43538336  0.83578530  0.34651225    -0.04100
C2318       C  0.41803914  0.84932830  0.35636002     0.02900
C2319       C  0.44566480  0.91259602  0.35627587     0.09800
C2320       C  0.48290471  0.88321543  0.33812671     0.35700
C2321       C  0.39437214  0.83917803  0.36010210     0.39100
C2322       C  0.46493822  0.92337817  0.36572817    -0.04400
C2323       C  0.46801743  0.94889927  0.36541553     0.02700
C2324       C  0.45047508  0.96409929  0.35706441    -0.04000
C2325       C  0.42930630  0.95322487  0.35005289    -0.00300
C2326       C  0.42786881  0.92783235  0.34838578    -0.02800
C2327       C  0.48156663  0.90818448  0.37585751     0.36400
C2328       C  0.40843934  0.96804499  0.34502060     0.40000
C2329       C  0.48954069  0.95902968  0.37343218     0.39200
C2330       C  0.40812420  0.91751070  0.33817844     0.36100
C2331       C  0.40555528  0.88676535  0.37230085     0.36800
C2332       C  0.47562150  0.83269530  0.33175109     0.40000
N2333       N  0.50680558  0.96662596  0.38007799    -0.38000
N2334       N  0.49478681  0.89607043  0.38398572    -0.39600
N2335       N  0.39179260  0.97981829  0.34102196    -0.37400
N2336       N  0.39228662  0.90934074  0.33013270    -0.39800
N2337       N  0.50030854  0.89239127  0.33280969    -0.39500
N2338       N  0.49035780  0.82158092  0.32416865    -0.37200
N2339       N  0.37520081  0.83147042  0.36263901    -0.38200
N2340       N  0.39183320  0.89780480  0.38085314    -0.39900
C2341       C  0.67974421  0.73908347  0.29175900    -0.04800
C2342       C  0.66004904  0.74295982  0.28013667     0.09300
C2343       C  0.63713410  0.74894522  0.28732990    -0.02200
C2344       C  0.63419469  0.75270926  0.30580193    -0.00500
C2345       C  0.65330960  0.74688950  0.31808366    -0.04100
C2346       C  0.67665482  0.74158590  0.31054178     0.02900
C2347       C  0.66368695  0.74657042  0.26039057     0.09800
C2348       C  0.61670630  0.75294903  0.27536777     0.35700
C2349       C  0.69825404  0.74213395  0.32148262     0.39100
C2350       C  0.65924739  0.72767455  0.24823728    -0.04400
C2351       C  0.65476827  0.73278973  0.22994895     0.02700
C2352       C  0.65517805  0.75716119  0.22335046    -0.04000
C2353       C  0.65819764  0.77602970  0.23634012    -0.00300
C2354       C  0.66468312  0.77054361  0.25407927    -0.02800
C2355       C  0.65816256  0.70297071  0.25485017     0.36400
C2356       C  0.65084807  0.80098055  0.23291422     0.40000
C2357       C  0.64678472  0.71301129  0.21871387     0.39200
C2358       C  0.67011175  0.79001165  0.26653270     0.36100
C2359       C  0.70344793  0.73339814  0.28424098     0.36800
C2360       C  0.61217630  0.76539341  0.31144982     0.40000
N2361       N  0.64021498  0.69710016  0.20993255    -0.38000
N2362       N  0.65742233  0.68326011  0.26014522    -0.39600
N2363       N  0.64502380  0.82097801  0.23055317    -0.37400
N2364       N  0.67449553  0.80541869  0.27648409    -0.39800
N2365       N  0.60055750  0.75611908  0.26577829    -0.39500
N2366       N  0.59452360  0.77549501  0.31569883    -0.37200
N2367       N  0.71572076  0.74296998  0.32999569    -0.38200
N2368       N  0.72233071  0.72869910  0.27823155    -0.39900
C2369       C  0.55186279  0.76699427  0.37050746    -0.04800
C2370       C  0.54111609  0.74494470  0.36546917     0.09300
C2371       C  0.55538087  0.72360897  0.36454079    -0.02200
C2372       C  0.58080082  0.72499140  0.36627462    -0.00500
C2373       C  0.59198782  0.74782175  0.36823208    -0.04100
C2374       C  0.57731445  0.76847306  0.37196465     0.02900
C2375       C  0.51593747  0.74547762  0.35824236     0.09800
C2376       C  0.54407441  0.70065982  0.36044482     0.35700
C2377       C  0.58792287  0.79166482  0.37623822     0.39100
C2378       C  0.51258247  0.74985977  0.33989531    -0.04400
C2379       C  0.48952023  0.75666745  0.33341383     0.02700
C2380       C  0.46923693  0.75762426  0.34519559    -0.04000
C2381       C  0.47223145  0.74907563  0.36290808    -0.00300
C2382       C  0.49565752  0.74419429  0.36963798    -0.02800
C2383       C  0.53310784  0.74776064  0.32772814     0.36400
C2384       C  0.45129371  0.74366174  0.37391779     0.40000
C2385       C  0.48737383  0.76322212  0.31474663     0.39200
C2386       C  0.49900994  0.73828852  0.38832797     0.36100
C2387       C  0.53676897  0.78860002  0.37276376     0.36800
C2388       C  0.59569416  0.70316278  0.36499447     0.40000
N2389       N  0.48624938  0.76798279  0.29972645    -0.38000
N2390       N  0.54933857  0.74560608  0.31796444    -0.39600
N2391       N  0.43495978  0.73839796  0.38282745    -0.37400
N2392       N  0.50170000  0.73367798  0.40326424    -0.39800
N2393       N  0.53504926  0.68235130  0.35710115    -0.39500
N2394       N  0.60772279  0.68584153  0.36400581    -0.37200
N2395       N  0.59511640  0.81061661  0.38004092    -0.38200
N2396       N  0.52466092  0.80576146  0.37452409    -0.39900
C2397       C  0.69633938  0.01547519  0.30739291    -0.04800
C2398       C  0.68651138  0.99852365  0.29541965     0.09300
C2399       C  0.67567659  0.97742745  0.30226491    -0.02200
C2400       C  0.67151598  0.97506618  0.32069732    -0.00500
C2401       C  0.68359644  0.99039212  0.33319274    -0.04100
C2402       C  0.69536720  0.01130617  0.32610541     0.02900
C2403       C  0.68277540  0.00434505  0.27597962     0.09800
C2404       C  0.66659613  0.95906809  0.29008241     0.35700
C2405       C  0.70434845  0.03004545  0.33786579     0.39100
C2406       C  0.70172252  0.00189544  0.26336679    -0.04400
C2407       C  0.69652242  0.00142636  0.24480228     0.02700
C2408       C  0.67202427  0.00228346  0.23860691    -0.04000
C2409       C  0.65332652  0.00216449  0.25194146    -0.00300
C2410       C  0.65876362  0.00690270  0.26988816    -0.02800
C2411       C  0.72648065  0.99892334  0.26956063     0.36400
C2412       C  0.62961639  0.99181505  0.24868752     0.40000
C2413       C  0.71640816  0.99725957  0.23237001     0.39200
C2414       C  0.63915867  0.01153168  0.28259071     0.36100
C2415       C  0.70638944  0.03780638  0.30046229     0.36800
C2416       C  0.65141749  0.95970583  0.32594268     0.40000
N2417       N  0.73232400  0.99369446  0.22252152    -0.38000
N2418       N  0.74624193  0.99665146  0.27453997    -0.39600
N2419       N  0.61067047  0.98344366  0.24647890    -0.37400
N2420       N  0.62357741  0.01518754  0.29270571    -0.39800
N2421       N  0.65928987  0.94458462  0.28034288    -0.39500
N2422       N  0.63518718  0.94760487  0.32986885    -0.37200
N2423       N  0.71153374  0.04515929  0.34712643    -0.38200
N2424       N  0.71438827  0.05564406  0.29493841    -0.39900
C2425       C  0.65152471  0.84009193  0.39061982    -0.04800
C2426       C  0.64658744  0.85908688  0.37867113     0.09300
C2427       C  0.64009409  0.85364204  0.36094543    -0.02200
C2428       C  0.63852600  0.82932407  0.35531832    -0.00500
C2429       C  0.64655283  0.81010797  0.36665777    -0.04100
C2430       C  0.65368584  0.81604921  0.38433363     0.02900
C2431       C  0.65065188  0.88484335  0.38405863     0.09800
C2432       C  0.63505209  0.87311838  0.34836490     0.35700
C2433       C  0.66514725  0.79841732  0.39591121     0.39100
C2434       C  0.67461006  0.89298972  0.38684673    -0.04400
C2435       C  0.67929917  0.91802583  0.38751916     0.02700
C2436       C  0.66049591  0.93486089  0.38391635    -0.04000
C2437       C  0.63637016  0.92673111  0.38213600    -0.00300
C2438       C  0.63131481  0.90182147  0.38347330    -0.02800
C2439       C  0.69476949  0.87578110  0.38714606     0.36400
C2440       C  0.61725227  0.94331930  0.37653868     0.40000
C2441       C  0.70397323  0.92642968  0.38976284     0.39200
C2442       C  0.60643443  0.89346260  0.38261923     0.36100
C2443       C  0.65379189  0.84544289  0.40949209     0.36800
C2444       C  0.62783915  0.82466013  0.33800878     0.40000
N2445       N  0.72366921  0.93314022  0.39142224    -0.38000
N2446       N  0.71082243  0.86203327  0.38721168    -0.39600
N2447       N  0.60181606  0.95614524  0.37176680    -0.37400
N2448       N  0.58660519  0.88677821  0.38194062    -0.39800
N2449       N  0.63089680  0.88860907  0.33836576    -0.39500
N2450       N  0.61940138  0.82168908  0.32407302    -0.37200
N2451       N  0.67482865  0.78535824  0.40570580    -0.38200
N2452       N  0.65475113  0.84994290  0.42455778    -0.39900
C2453       C  0.53800410  0.04333876  0.38688689    -0.04800
C2454       C  0.55719157  0.03147338  0.37781323     0.09300
C2455       C  0.55236875  0.01693228  0.36276457    -0.02200
C2456       C  0.52832432  0.01300538  0.35749271    -0.00500
C2457       C  0.50903274  0.02524199  0.36624158    -0.04100
C2458       C  0.51390608  0.04054965  0.38092713     0.02900
C2459       C  0.58223281  0.03099314  0.38511026     0.09800
C2460       C  0.57225848  0.00573015  0.35279200     0.35700
C2461       C  0.49426939  0.05342314  0.38991541     0.39100
C2462       C  0.58893441  0.01159951  0.39633054    -0.04400
C2463       C  0.61320523  0.00325636  0.39649383     0.02700
C2464       C  0.63054054  0.01456703  0.38526293    -0.04000
C2465       C  0.62473703  0.03779347  0.37823426    -0.00300
C2466       C  0.60032181  0.04550657  0.37742812    -0.02800
C2467       C  0.57032719  0.99883267  0.40626268     0.36400
C2468       C  0.64375265  0.05314003  0.37117363     0.40000
C2469       C  0.61933041  0.98252791  0.40752131     0.39200
C2470       C  0.59358126  0.06698411  0.36736649     0.36100
C2471       C  0.54317751  0.05830462  0.40229827     0.36800
C2472       C  0.52349243  0.99462873  0.34416794     0.40000
N2473       N  0.62359959  0.96604692  0.41661290    -0.38000
N2474       N  0.55541005  0.98877971  0.41418367    -0.39600
N2475       N  0.65900209  0.06535211  0.36563261    -0.37400
N2476       N  0.58826132  0.08410210  0.35926581    -0.39800
N2477       N  0.58812407  0.99711425  0.34470522    -0.39500
N2478       N  0.52029878  0.97907535  0.33410073    -0.37200
N2479       N  0.47881150  0.06386847  0.39723149    -0.38200
N2480       N  0.54740285  0.07024282  0.41459310    -0.39900
C2481       C  0.82891554  0.15127330  0.12356672    -0.04800
C2482       C  0.81881255  0.14882243  0.14081819     0.09300
C2483       C  0.82764292  0.16279002  0.15510402    -0.02200
C2484       C  0.84633369  0.17948249  0.15208084    -0.00500
C2485       C  0.85543364  0.18295494  0.13464067    -0.04100
C2486       C  0.84706420  0.16855940  0.12042543     0.02900
C2487       C  0.79783430  0.13250797  0.14365304     0.09800
C2488       C  0.81676960  0.16069555  0.17270898     0.35700
C2489       C  0.85611199  0.17249649  0.10244211     0.39100
C2490       C  0.80168101  0.10743839  0.14613431    -0.04400
C2491       C  0.78170593  0.09183171  0.14775252     0.02700
C2492       C  0.75769968  0.10130518  0.14667418    -0.04000
C2493       C  0.75403027  0.12663165  0.14427488    -0.00300
C2494       C  0.77406519  0.14214688  0.14301446    -0.02800
C2495       C  0.82628611  0.09773812  0.14667913     0.36400
C2496       C  0.72979571  0.13675644  0.14182501     0.40000
C2497       C  0.78606376  0.06606922  0.15046843     0.39200
C2498       C  0.77028136  0.16806219  0.14053928     0.36100
C2499       C  0.81988681  0.13666538  0.10895699     0.36800
C2500       C  0.85633971  0.19302832  0.16690630     0.40000
N2501       N  0.78966406  0.04552397  0.15255045    -0.38000
N2502       N  0.84594524  0.09008881  0.14701565    -0.39600
N2503       N  0.71052047  0.14484591  0.13973286    -0.37400
N2504       N  0.76728223  0.18872372  0.13861801    -0.39800
N2505       N  0.80788228  0.15924749  0.18669688    -0.39500
N2506       N  0.86452665  0.20365081  0.17873494    -0.37200
N2507       N  0.86323207  0.17575256  0.08808653    -0.38200
N2508       N  0.81264232  0.12493552  0.09736085    -0.39900
C2509       C  0.34835848  0.16119888  0.13353076    -0.04800
C2510       C  0.33276951  0.16191413  0.11865832     0.09300
C2511       C  0.33523774  0.14433943  0.10505707    -0.02200
C2512       C  0.35356028  0.12631044  0.10615137    -0.00500
C2513       C  0.36906009  0.12533622  0.12118542    -0.04100
C2514       C  0.36621849  0.14280079  0.13493304     0.02900
C2515       C  0.31369766  0.18129774  0.11739226     0.09800
C2516       C  0.31879881  0.14483578  0.08996876     0.35700
C2517       C  0.38105346  0.14144021  0.15087232     0.39100
C2518       C  0.31717750  0.20137146  0.10602269    -0.04400
C2519       C  0.29967522  0.22019480  0.10542334     0.02700
C2520       C  0.27873696  0.21919489  0.11641870    -0.04000
C2521       C  0.27501537  0.19875320  0.12748051    -0.00300
C2522       C  0.29247099  0.17987940  0.12794575    -0.02800
C2523       C  0.33898764  0.20280242  0.09513342     0.36400
C2524       C  0.25371176  0.19745605  0.13892568     0.40000
C2525       C  0.30295479  0.24023935  0.09309822     0.39200
C2526       C  0.28886196  0.15914825  0.13956188     0.36100
C2527       C  0.34593236  0.17946412  0.14742633     0.36800
C2528       C  0.35698461  0.10943980  0.09143045     0.40000
N2529       N  0.30550284  0.25618263  0.08323159    -0.38000
N2530       N  0.35636323  0.20393612  0.08642763    -0.39600
N2531       N  0.23670283  0.19642325  0.14802796    -0.37400
N2532       N  0.28607455  0.14268086  0.14890537    -0.39800
N2533       N  0.30561886  0.14530631  0.07797986    -0.39500
N2534       N  0.35973960  0.09611683  0.07961344    -0.37200
N2535       N  0.39279759  0.14032643  0.16362604    -0.38200
N2536       N  0.34390069  0.19403557  0.15848977    -0.39900
C2537       C  0.59484837  0.10873329  0.11572116    -0.04800
C2538       C  0.57839889  0.10882823  0.13022764     0.09300
C2539       C  0.58747879  0.10838811  0.14783188    -0.02200
C2540       C  0.61244345  0.10415558  0.15075049    -0.00500
C2541       C  0.62810548  0.09937211  0.13616786    -0.04100
C2542       C  0.61965712  0.10351318  0.11861725     0.02900
C2543       C  0.55206490  0.10407348  0.12694529     0.09800
C2544       C  0.57103410  0.11075735  0.16293134     0.35700
C2545       C  0.63581918  0.10023747  0.10343337     0.39100
C2546       C  0.54513846  0.08062130  0.12147621    -0.04400
C2547       C  0.52039977  0.07469195  0.12012710     0.02700
C2548       C  0.50213038  0.09217004  0.12435133    -0.04000
C2549       C  0.50920911  0.11616210  0.12876102    -0.00300
C2550       C  0.53409629  0.12204244  0.12996802    -0.02800
C2551       C  0.56361099  0.06212807  0.11796499     0.36400
C2552       C  0.49108253  0.13476716  0.13263702     0.40000
C2553       C  0.51403481  0.05042608  0.11433763     0.39200
C2554       C  0.54129572  0.14657981  0.13432150     0.36100
C2555       C  0.58577686  0.11202781  0.09773047     0.36800
C2556       C  0.62212243  0.10463308  0.16871031     0.40000
N2557       N  0.50914265  0.03101827  0.10976335    -0.38000
N2558       N  0.57842219  0.04751771  0.11515949    -0.39600
N2559       N  0.47666304  0.14968107  0.13567928    -0.37400
N2560       N  0.54703315  0.16618207  0.13774037    -0.39800
N2561       N  0.55799300  0.11269214  0.17503120    -0.39500
N2562       N  0.63007351  0.10551614  0.18296343    -0.37200
N2563       N  0.64866684  0.09757439  0.09129329    -0.38200
N2564       N  0.57845644  0.11468026  0.08339934    -0.39900
C2565       C  0.81088349  0.15567201  0.93332356    -0.04800
C2566       C  0.81520506  0.13534751  0.92229401     0.09300
C2567       C  0.83478184  0.13511150  0.91012563    -0.02200
C2568       C  0.84976807  0.15557579  0.90861640    -0.00500
C2569       C  0.84493785  0.17633443  0.91921045    -0.04100
C2570       C  0.82569839  0.17613926  0.93180498     0.02900
C2571       C  0.79761655  0.11516945  0.92251951     0.09800
C2572       C  0.83892925  0.11402961  0.89885579     0.35700
C2573       C  0.82130236  0.19685275  0.94344982     0.39100
C2574       C  0.77692704  0.11670854  0.91159819    -0.04400
C2575       C  0.75831166  0.09974089  0.91355623     0.02700
C2576       C  0.76014177  0.08147236  0.92674424    -0.04000
C2577       C  0.78184072  0.07870648  0.93661316    -0.00300
C2578       C  0.80057924  0.09566394  0.93449026    -0.02800
C2579       C  0.77459131  0.13616364  0.89863810     0.36400
C2580       C  0.78464186  0.05908268  0.94937769     0.40000
C2581       C  0.73748326  0.10084095  0.90173592     0.39200
C2582       C  0.82266576  0.09347261  0.94486856     0.36100
C2583       C  0.79080319  0.15567021  0.94597672     0.36800
C2584       C  0.86935391  0.15562229  0.89560755     0.40000
N2585       N  0.72091908  0.10156861  0.89228545    -0.38000
N2586       N  0.77276187  0.15167691  0.88830522    -0.39600
N2587       N  0.78698759  0.04335221  0.95948487    -0.37400
N2588       N  0.84035164  0.09168743  0.95307523    -0.39800
N2589       N  0.84203760  0.09713101  0.88990630    -0.39500
N2590       N  0.88493534  0.15557508  0.88517788    -0.37200
N2591       N  0.81783876  0.21337099  0.95271824    -0.38200
N2592       N  0.77478201  0.15568213  0.95604106    -0.39900
C2593       C  0.70312067  0.99964217  0.02030431    -0.04800
C2594       C  0.71275566  0.01925867  0.03009233     0.09300
C2595       C  0.72379451  0.03852459  0.02078515    -0.02200
C2596       C  0.72382748  0.03890006  0.00195271    -0.00500
C2597       C  0.71181407  0.02061933  0.99214057    -0.04100
C2598       C  0.70241237  0.00039412  0.00140099     0.02900
C2599       C  0.70936475  0.02073508  0.05004340     0.09800
C2600       C  0.73420358  0.05861297  0.03055974     0.35700
C2601       C  0.69085474  0.98097440  0.99166903     0.39100
C2602       C  0.72934224  0.01851568  0.06173750    -0.04400
C2603       C  0.72618996  0.02222014  0.08033467     0.02700
C2604       C  0.70280718  0.02754733  0.08748266    -0.04000
C2605       C  0.68263733  0.02810522  0.07580155    -0.00300
C2606       C  0.68600430  0.02545392  0.05721543    -0.02800
C2607       C  0.75330444  0.01312367  0.05451559     0.36400
C2608       C  0.65818476  0.03116591  0.08287656     0.40000
C2609       C  0.74730376  0.02176237  0.09184787     0.39200
C2610       C  0.66543337  0.02860656  0.04535913     0.36100
C2611       C  0.69314038  0.97908549  0.02981577     0.36800
C2612       C  0.73625722  0.05830169  0.99263521     0.40000
N2613       N  0.76423589  0.02143014  0.10095136    -0.38000
N2614       N  0.77242071  0.00898122  0.04869277    -0.39600
N2615       N  0.63870908  0.03349486  0.08856530    -0.37400
N2616       N  0.64904267  0.03121515  0.03590962    -0.39800
N2617       N  0.74258328  0.07465353  0.03828513    -0.39500
N2618       N  0.74618187  0.07368968  0.98514885    -0.37200
N2619       N  0.68162445  0.96537286  0.98399240    -0.38200
N2620       N  0.68515877  0.96279948  0.03753376    -0.39900
C2621       C  0.30629895  0.17884753  0.89607173    -0.04800
C2622       C  0.30413207  0.15906501  0.90783701     0.09300
C2623       C  0.28369116  0.15727268  0.91914729    -0.02200
C2624       C  0.26596160  0.17592638  0.91934743    -0.00500
C2625       C  0.26903499  0.19668348  0.90850717    -0.04100
C2626       C  0.28884352  0.19767831  0.89642207     0.02900
C2627       C  0.32487289  0.14177446  0.90986643     0.09800
C2628       C  0.28171274  0.13687993  0.93129427     0.35700
C2629       C  0.29144355  0.21817099  0.88441015     0.39100
C2630       C  0.34341983  0.14726141  0.92207187    -0.04400
C2631       C  0.36339740  0.13139450  0.92404630     0.02700
C2632       C  0.36452869  0.10950253  0.91418135    -0.04000
C2633       C  0.34618447  0.10435944  0.90158166    -0.00300
C2634       C  0.32635536  0.12049568  0.89947165    -0.02800
C2635       C  0.34160936  0.16910689  0.93287923     0.36400
C2636       C  0.34816567  0.08301505  0.89026521     0.40000
C2637       C  0.38245445  0.13749907  0.93654302     0.39200
C2638       C  0.30740204  0.11523482  0.88670100     0.36100
C2639       C  0.32713479  0.18028254  0.88418545     0.36800
C2640       C  0.24545534  0.17436803  0.93151820     0.40000
N2641       N  0.39774919  0.14249449  0.94638829    -0.38000
N2642       N  0.33999458  0.18645880  0.94154443    -0.39600
N2643       N  0.34982788  0.06607988  0.88116093    -0.37400
N2644       N  0.29225399  0.11103630  0.87653210    -0.39800
N2645       N  0.28029085  0.12067134  0.94105089    -0.39500
N2646       N  0.22908309  0.17306515  0.94121092    -0.37200
N2647       N  0.29356700  0.23453039  0.87486240    -0.38200
N2648       N  0.34379795  0.18139405  0.87475282    -0.39900
C2649       C  0.41116840  0.00680330  0.00428773    -0.04800
C2650       C  0.40309103  0.02516904  0.01611811     0.09300
C2651       C  0.39207039  0.04637389  0.00919687    -0.02200
C2652       C  0.39117302  0.05021334  0.99060782    -0.00500
C2653       C  0.40197170  0.03319240  0.97871442    -0.04100
C2654       C  0.41081997  0.01082966  0.98560759     0.02900
C2655       C  0.40937794  0.02436530  0.03558436     0.09800
C2656       C  0.38297144  0.06497785  0.02131884     0.35700
C2657       C  0.42118210  0.99265633  0.97371497     0.39100
C2658       C  0.43224593  0.03285013  0.04103274    -0.04400
C2659       C  0.43659577  0.03808600  0.05916290     0.02700
C2660       C  0.41792711  0.03517312  0.07208183    -0.04000
C2661       C  0.39576589  0.02448777  0.06678119    -0.00300
C2662       C  0.39163916  0.01896214  0.04858794    -0.02800
C2663       C  0.45094151  0.03739732  0.02774958     0.36400
C2664       C  0.37645492  0.02077678  0.07969441     0.40000
C2665       C  0.46025996  0.04698866  0.06435907     0.39200
C2666       C  0.36879977  0.00855665  0.04307853     0.36100
C2667       C  0.42075463  0.98422712  0.01144660     0.36800
C2668       C  0.37951534  0.07204541  0.98376048     0.40000
N2669       N  0.47911302  0.05417441  0.06844356    -0.38000
N2670       N  0.46576645  0.04098397  0.01709535    -0.39600
N2671       N  0.36098607  0.01787342  0.08996837    -0.37400
N2672       N  0.35062242  0.00011438  0.03869245    -0.39800
N2673       N  0.37583578  0.07976632  0.03106308    -0.39500
N2674       N  0.37019409  0.08943540  0.97829773    -0.37200
N2675       N  0.42950079  0.97810444  0.96427350    -0.38200
N2676       N  0.42826563  0.96616404  0.01719784    -0.39900
C2677       C  0.58946783  0.09266315  0.93196747    -0.04800
C2678       C  0.57486650  0.08082390  0.94474927     0.09300
C2679       C  0.58598453  0.06726486  0.95847253    -0.02200
C2680       C  0.61100776  0.06196555  0.95758800    -0.00500
C2681       C  0.62503734  0.07059926  0.94311359    -0.04100
C2682       C  0.61464172  0.08757494  0.93114335     0.02900
C2683       C  0.54823108  0.07818644  0.94166606     0.09800
C2684       C  0.57125710  0.05739135  0.97278780     0.35700
C2685       C  0.62933651  0.09856971  0.91728550     0.39100
C2686       C  0.53960540  0.05570510  0.93538951    -0.04400
C2687       C  0.51480457  0.05269849  0.93183736     0.02700
C2688       C  0.49804687  0.07200246  0.93497733    -0.04000
C2689       C  0.50668665  0.09443057  0.94159608    -0.00300
C2690       C  0.53173685  0.09748504  0.94487029    -0.02800
C2691       C  0.55631131  0.03536856  0.93268993     0.36400
C2692       C  0.48985393  0.11411051  0.94575304     0.40000
C2693       C  0.50685582  0.02960471  0.92466642     0.39200
C2694       C  0.54051349  0.12024992  0.95195878     0.36100
C2695       C  0.57834596  0.10874181  0.91895112     0.36800
C2696       C  0.62223676  0.04727907  0.97142881     0.40000
N2697       N  0.50058272  0.01111107  0.91910737    -0.38000
N2698       N  0.56955439  0.01912811  0.93060201    -0.39600
N2699       N  0.47647233  0.12983128  0.94913560    -0.37400
N2700       N  0.54753325  0.13842771  0.95758646    -0.39800
N2701       N  0.55943827  0.04949344  0.98415613    -0.39500
N2702       N  0.63125609  0.03562505  0.98246719    -0.37200
N2703       N  0.64101894  0.10747071  0.90625078    -0.38200
N2704       N  0.56946608  0.12161201  0.90859734    -0.39900
C2705       C  0.70343238  0.90027146  0.87624437    -0.04800
C2706       C  0.68078178  0.88872940  0.87565366     0.09300
C2707       C  0.65924563  0.90232073  0.87847203    -0.02200
C2708       C  0.66011479  0.92783123  0.87940139    -0.00500
C2709       C  0.68256010  0.93963498  0.87708907    -0.04100
C2710       C  0.70430647  0.92571183  0.87750316     0.02900
C2711       C  0.67915536  0.86320416  0.86932618     0.09800
C2712       C  0.63605569  0.89006450  0.87905895     0.35700
C2713       C  0.72754686  0.93769144  0.87896627     0.39100
C2714       C  0.68221651  0.84360743  0.88113483    -0.04400
C2715       C  0.67834503  0.81970355  0.87511982     0.02700
C2716       C  0.67048770  0.81540359  0.85741475    -0.04000
C2717       C  0.66996099  0.83508602  0.84517662    -0.00300
C2718       C  0.67400816  0.85887296  0.85122055    -0.02800
C2719       C  0.68903828  0.84815178  0.89950454     0.36400
C2720       C  0.66532350  0.83145322  0.82634090     0.40000
C2721       C  0.68406566  0.79959853  0.88688449     0.39200
C2722       C  0.67230913  0.87917471  0.83887439     0.36100
C2723       C  0.72566979  0.88616366  0.87418138     0.36800
C2724       C  0.63784562  0.94148907  0.88236544     0.40000
N2725       N  0.68936650  0.78393523  0.89643544    -0.38000
N2726       N  0.69453023  0.85183354  0.91414497    -0.39600
N2727       N  0.66224547  0.82924787  0.81115891    -0.37400
N2728       N  0.67090732  0.89542564  0.82913265    -0.39800
N2729       N  0.61759215  0.88023729  0.87941556    -0.39500
N2730       N  0.61980157  0.95174143  0.88529751    -0.37200
N2731       N  0.74603240  0.94728396  0.88037498    -0.38200
N2732       N  0.74340571  0.87490905  0.87244514    -0.39900
C2733       C  0.58820197  0.99285293  0.85686157    -0.04800
C2734       C  0.57849560  0.00987330  0.86916893     0.09300
C2735       C  0.59432824  0.02416971  0.87942165    -0.02200
C2736       C  0.61964966  0.02060970  0.87808463    -0.00500
C2737       C  0.62927544  0.00303568  0.86623262    -0.04100
C2738       C  0.61352140  0.98963309  0.85525115     0.02900
C2739       C  0.55153790  0.01243093  0.87116150     0.09800
C2740       C  0.58459622  0.04323511  0.89075458     0.35700
C2741       C  0.62334700  0.97201821  0.84264002     0.39100
C2742       C  0.53808926  0.99338372  0.87880630    -0.04400
C2743       C  0.51255975  0.99309069  0.87716778     0.02700
C2744       C  0.50036064  0.01245158  0.86837068    -0.04000
C2745       C  0.51365844  0.03357385  0.86416775    -0.00300
C2746       C  0.53919721  0.03302110  0.86446273    -0.02800
C2747       C  0.55072119  0.97367907  0.88784672     0.36400
C2748       C  0.50099653  0.05616222  0.86014532     0.40000
C2749       C  0.49944573  0.97287477  0.88471069     0.39200
C2750       C  0.55266834  0.05315864  0.85706295     0.36100
C2751       C  0.57205635  0.97874462  0.84576419     0.36800
C2752       C  0.63577694  0.03585985  0.88828645     0.40000
N2753       N  0.48956797  0.95670065  0.89127396    -0.38000
N2754       N  0.56079362  0.95799897  0.89507616    -0.39600
N2755       N  0.49079374  0.07420281  0.85722551    -0.37400
N2756       N  0.56340837  0.06923641  0.85116152    -0.39800
N2757       N  0.57670621  0.05898414  0.89926202    -0.39500
N2758       N  0.64846710  0.04832575  0.89633814    -0.37200
N2759       N  0.63124821  0.95801278  0.83258686    -0.38200
N2760       N  0.55908150  0.96747794  0.83701067    -0.39900
C2761       C  0.50582316  0.76713725  0.84524434    -0.04800
C2762       C  0.51646869  0.78597185  0.85516784     0.09300
C2763       C  0.50127586  0.80371146  0.86318572    -0.02200
C2764       C  0.47583037  0.80359318  0.86022070    -0.00500
C2765       C  0.46502253  0.78463108  0.85020641    -0.04100
C2766       C  0.48038891  0.76539668  0.84406704     0.02900
C2767       C  0.54361629  0.78595480  0.85766929     0.09800
C2768       C  0.51187787  0.82212173  0.87452293     0.35700
C2769       C  0.47027095  0.74297714  0.83732318     0.39100
C2770       C  0.55822233  0.80357422  0.84927619    -0.04400
C2771       C  0.58377080  0.80071077  0.84896682     0.02700
C2772       C  0.59475722  0.77957909  0.85609357    -0.04000
C2773       C  0.58031042  0.76265228  0.86529932    -0.00300
C2774       C  0.55497767  0.76632824  0.86661735    -0.02800
C2775       C  0.54697264  0.82380545  0.83995417     0.36400
C2776       C  0.59109365  0.74042274  0.87214401     0.40000
C2777       C  0.59865474  0.81918085  0.84077531     0.39200
C2778       C  0.54017225  0.74882701  0.87594658     0.36100
C2779       C  0.52117627  0.74954140  0.83595879     0.36800
C2780       C  0.46133434  0.82317314  0.86766739     0.40000
N2781       N  0.61018914  0.83429219  0.83434566    -0.38000
N2782       N  0.53806291  0.83996197  0.83247955    -0.39600
N2783       N  0.59931349  0.72239053  0.87740434    -0.37400
N2784       N  0.52787288  0.73485495  0.88294627    -0.39800
N2785       N  0.52030818  0.83680745  0.88356879    -0.39500
N2786       N  0.45057070  0.83899358  0.87422368    -0.37200
N2787       N  0.46236310  0.72505201  0.83191640    -0.38200
N2788       N  0.53353677  0.73565129  0.82855664    -0.39900
C2789       C  0.40557434  0.88143977  0.84433566    -0.04800
C2790       C  0.40771776  0.88619120  0.86270527     0.09300
C2791       C  0.40141435  0.86819254  0.87514837    -0.02200
C2792       C  0.39579532  0.84462751  0.86912340    -0.00500
C2793       C  0.39911798  0.83837908  0.85089689    -0.04100
C2794       C  0.40221638  0.85758597  0.83832841     0.02900
C2795       C  0.41844067  0.90972710  0.86818747     0.09800
C2796       C  0.40185321  0.87354543  0.89409130     0.35700
C2797       C  0.40270877  0.85372052  0.81918191     0.39100
C2798       C  0.40338391  0.92873956  0.87460584    -0.04400
C2799       C  0.41172063  0.95280146  0.87410644     0.02700
C2800       C  0.43464565  0.95781174  0.86658506    -0.04000
C2801       C  0.45031252  0.93870769  0.86133460    -0.00300
C2802       C  0.44257874  0.91461243  0.86281186    -0.02800
C2803       C  0.37866417  0.92386508  0.88018393     0.36400
C2804       C  0.47349165  0.94384343  0.85288422     0.40000
C2805       C  0.39593520  0.97262217  0.87983049     0.39200
C2806       C  0.45852219  0.89504965  0.85675680     0.36100
C2807       C  0.40831186  0.90112973  0.83153309     0.36800
C2808       C  0.38590434  0.82727878  0.88163772     0.40000
N2809       N  0.38336171  0.98848102  0.88433454    -0.38000
N2810       N  0.35893179  0.92000650  0.88465727    -0.39600
N2811       N  0.49200275  0.94773036  0.84613599    -0.37400
N2812       N  0.47135118  0.87974692  0.85163894    -0.39800
N2813       N  0.40218791  0.87784676  0.90921398    -0.39500
N2814       N  0.37749454  0.81398569  0.89183056    -0.37200
N2815       N  0.40255998  0.85174883  0.80379567    -0.38200
N2816       N  0.41059538  0.91679749  0.82139532    -0.39900
C2817       C  0.72732343  0.00504867  0.76296618    -0.04800
C2818       C  0.70896948  0.00644652  0.77614137     0.09300
C2819       C  0.68478497  0.00211040  0.77117203    -0.02200
C2820       C  0.67884621  0.99659220  0.75329965    -0.00500
C2821       C  0.69702114  0.99619198  0.73950423    -0.04100
C2822       C  0.72167589  0.99846672  0.74513239     0.02900
C2823       C  0.71480130  0.00886116  0.79574047     0.09800
C2824       C  0.66584003  0.00241713  0.78480059     0.35700
C2825       C  0.74162258  0.99077617  0.73368429     0.39100
C2826       C  0.70641222  0.02914385  0.80567251    -0.04400
C2827       C  0.70386425  0.02748223  0.82448179     0.02700
C2828       C  0.70958552  0.00539168  0.83339275    -0.04000
C2829       C  0.72445700  0.98851704  0.82387818    -0.00300
C2830       C  0.72533873  0.98915306  0.80504675    -0.02800
C2831       C  0.69885294  0.05099853  0.79637441     0.36400
C2832       C  0.74050587  0.97188189  0.83321310     0.40000
C2833       C  0.69436338  0.04805525  0.83449558     0.39200
C2834       C  0.73557696  0.96865022  0.79532229     0.36100
C2835       C  0.75227896  0.00978680  0.76790857     0.36800
C2836       C  0.65389337  0.98983698  0.74987352     0.40000
N2837       N  0.68677066  0.06446544  0.84250379    -0.38000
N2838       N  0.69284496  0.06843234  0.78891226    -0.39600
N2839       N  0.75357843  0.95853055  0.84037713    -0.37400
N2840       N  0.74363413  0.95224747  0.78754801    -0.39800
N2841       N  0.65083717  0.00278814  0.79568206    -0.39500
N2842       N  0.63372669  0.98508393  0.74756381    -0.37200
N2843       N  0.75773711  0.98428964  0.72483270    -0.38200
N2844       N  0.77219010  0.01359475  0.77181471    -0.39900
C2845       C  0.68909677  0.72583432  0.74882942    -0.04800
C2846       C  0.66976875  0.71843660  0.75993205     0.09300
C2847       C  0.65028832  0.70594201  0.75209378    -0.02200
C2848       C  0.64773514  0.70557930  0.73331743    -0.00500
C2849       C  0.66361974  0.71942060  0.72250654    -0.04100
C2850       C  0.68641948  0.72511154  0.73005962     0.02900
C2851       C  0.66729951  0.72785458  0.77874271     0.09800
C2852       C  0.63232919  0.69454055  0.76342318     0.35700
C2853       C  0.70705555  0.72959293  0.71854532     0.39100
C2854       C  0.65198111  0.74804072  0.78179702    -0.04400
C2855       C  0.64840381  0.75727142  0.79917877     0.02700
C2856       C  0.65930350  0.74572733  0.81433981    -0.04000
C2857       C  0.67713833  0.72731450  0.81074598    -0.00300
C2858       C  0.68028872  0.71782246  0.79319484    -0.02800
C2859       C  0.63993354  0.75964857  0.76676861     0.36400
C2860       C  0.69448377  0.72009098  0.82425629     0.40000
C2861       C  0.63381623  0.77929816  0.80092970     0.39200
C2862       C  0.69715715  0.69789149  0.78993049     0.36100
C2863       C  0.71105580  0.73533003  0.75662415     0.36800
C2864       C  0.63081504  0.68892701  0.72528924     0.40000
N2865       N  0.62174006  0.79658527  0.80195112    -0.38000
N2866       N  0.63037762  0.76883073  0.75478130    -0.39600
N2867       N  0.70879917  0.71447491  0.83479228    -0.37400
N2868       N  0.71064399  0.68199961  0.78730977    -0.39800
N2869       N  0.61802664  0.68546126  0.77252466    -0.39500
N2870       N  0.61744166  0.67540348  0.71892311    -0.37200
N2871       N  0.72380837  0.73204099  0.70936003    -0.38200
N2872       N  0.72869415  0.74278459  0.76280785    -0.39900
C2873       C  0.68364932  0.83481789  0.69630336    -0.04800
C2874       C  0.66484338  0.85055173  0.69086704     0.09300
C2875       C  0.64341191  0.84098419  0.68371009    -0.02200
C2876       C  0.64011074  0.81560798  0.68297359    -0.00500
C2877       C  0.65854775  0.79949522  0.68924967    -0.04100
C2878       C  0.68085005  0.80950361  0.69501748     0.02900
C2879       C  0.66757052  0.87732481  0.69301188     0.09800
C2880       C  0.62461785  0.85745341  0.67726240     0.35700
C2881       C  0.70162339  0.79409240  0.69890587     0.39100
C2882       C  0.68175215  0.89054047  0.68082372    -0.04400
C2883       C  0.68542245  0.91560135  0.68342110     0.02700
C2884       C  0.67489190  0.92768661  0.69831763    -0.04000
C2885       C  0.65985688  0.91432124  0.71013411    -0.00300
C2886       C  0.65653406  0.88924306  0.70759798    -0.02800
C2887       C  0.69291321  0.87806057  0.66576216     0.36400
C2888       C  0.64671460  0.92628124  0.72451527     0.40000
C2889       C  0.70046678  0.92845145  0.67079795     0.39200
C2890       C  0.64199388  0.87549174  0.72017705     0.36100
C2891       C  0.70582798  0.84481514  0.70354226     0.36800
C2892       C  0.61754285  0.80683947  0.67573168     0.40000
N2893       N  0.71244871  0.93794506  0.66025693    -0.38000
N2894       N  0.70179582  0.86784633  0.65386860    -0.39600
N2895       N  0.63581646  0.93510679  0.73609999    -0.37400
N2896       N  0.63045697  0.86446298  0.73018747    -0.39800
N2897       N  0.60968328  0.87061424  0.67212287    -0.39500
N2898       N  0.59933183  0.80126053  0.66937943    -0.37200
N2899       N  0.71881793  0.78262677  0.70195936    -0.38200
N2900       N  0.72341826  0.85289380  0.70935610    -0.39900
C2901       C  0.42020937  0.05470160  0.79899387    -0.04800
C2902       C  0.42655930  0.03858599  0.78512935     0.09300
C2903       C  0.43795049  0.01635122  0.78929532    -0.02200
C2904       C  0.44291110  0.01013871  0.80721397    -0.00500
C2905       C  0.43571930  0.02582047  0.82162841    -0.04100
C2906       C  0.42605508  0.04912999  0.81694516     0.02900
C2907       C  0.42560297  0.04652655  0.76598985     0.09800
C2908       C  0.44547092  0.00015797  0.77489126     0.35700
C2909       C  0.42577216  0.06907243  0.82953242     0.39100
C2910       C  0.44431204  0.06109708  0.75901718    -0.04400
C2911       C  0.44722945  0.06331620  0.74039250     0.02700
C2912       C  0.43316809  0.04884681  0.72884538    -0.04000
C2913       C  0.41078636  0.04048680  0.73567579    -0.00300
C2914       C  0.40750000  0.03809874  0.75431773    -0.02800
C2915       C  0.46122360  0.07279568  0.77094205     0.36400
C2916       C  0.39105314  0.03566179  0.72355274     0.40000
C2917       C  0.46267568  0.08210564  0.73322841     0.39200
C2918       C  0.38615651  0.02630704  0.76140014     0.36100
C2919       C  0.40847212  0.07763376  0.79458390     0.36800
C2920       C  0.45711632  0.98818433  0.81036136     0.40000
N2921       N  0.47487310  0.09725393  0.72753570    -0.38000
N2922       N  0.47467389  0.08208000  0.78053127    -0.39600
N2923       N  0.37499294  0.03298821  0.71386440    -0.37400
N2924       N  0.36906574  0.01687132  0.76700539    -0.39800
N2925       N  0.45141225  0.98736977  0.76336112    -0.39500
N2926       N  0.46848994  0.97064144  0.81251524    -0.37200
N2927       N  0.42581939  0.08547715  0.83920569    -0.38200
N2928       N  0.39900975  0.09584232  0.79100166    -0.39900
C2929       C  0.54544827  0.00949208  0.70276984    -0.04800
C2930       C  0.55748879  0.01810592  0.68739671     0.09300
C2931       C  0.54426468  0.03063535  0.67412328    -0.02200
C2932       C  0.51899827  0.03449496  0.67620452    -0.00500
C2933       C  0.50689507  0.02555031  0.69145215    -0.04100
C2934       C  0.52024557  0.01291794  0.70471865     0.02900
C2935       C  0.58405912  0.01304903  0.68530114     0.09800
C2936       C  0.55667677  0.03936444  0.65831806     0.35700
C2937       C  0.50794207  0.00235851  0.72001231     0.39100
C2938       C  0.59207832  0.98923777  0.68147637    -0.04400
C2939       C  0.61655996  0.98251577  0.68421086     0.02700
C2940       C  0.63346962  0.99999631  0.69010583    -0.04000
C2941       C  0.62587754  0.02466651  0.69126276    -0.00300
C2942       C  0.60111670  0.03100179  0.68948593    -0.02800
C2943       C  0.57470187  0.97127586  0.67564626     0.36400
C2944       C  0.64347011  0.04358271  0.69446406     0.40000
C2945       C  0.62337695  0.95726696  0.68176894     0.39200
C2946       C  0.59296362  0.05570588  0.69292922     0.36100
C2947       C  0.55906177  0.99680184  0.71654425     0.36800
C2948       C  0.50554053  0.04803721  0.66285506     0.40000
N2949       N  0.62760432  0.93690899  0.67933162    -0.38000
N2950       N  0.56096882  0.95687738  0.67097403    -0.39600
N2951       N  0.65749784  0.05866661  0.69702921    -0.37400
N2952       N  0.58638457  0.07538219  0.69571896    -0.39800
N2953       N  0.56664853  0.04635766  0.64572870    -0.39500
N2954       N  0.49480112  0.05892432  0.65223404    -0.37200
N2955       N  0.49812165  0.99396313  0.73219098    -0.38200
N2956       N  0.56995707  0.98663432  0.72745931    -0.39900
C2957       C  0.40282808  0.74432118  0.73896776    -0.04800
C2958       C  0.38695709  0.76056470  0.74782409     0.09300
C2959       C  0.37251471  0.77660216  0.73767228    -0.02200
C2960       C  0.37716264  0.77932563  0.71923227    -0.00500
C2961       C  0.39762932  0.76747117  0.71128523    -0.04100
C2962       C  0.40752152  0.74717023  0.72054902     0.02900
C2963       C  0.38997801  0.76480143  0.76740911     0.09800
C2964       C  0.35444908  0.79180372  0.74651133     0.35700
C2965       C  0.42079677  0.72815998  0.71123916     0.39100
C2966       C  0.40858050  0.78028136  0.77288858    -0.04400
C2967       C  0.41221747  0.78505356  0.79109673     0.02700
C2968       C  0.39823706  0.77295209  0.80457265    -0.04000
C2969       C  0.37798329  0.75909913  0.79869738    -0.00300
C2970       C  0.37428654  0.75474114  0.78022463    -0.02800
C2971       C  0.42393439  0.79175649  0.75953239     0.36400
C2972       C  0.35922064  0.75143030  0.81099371     0.40000
C2973       C  0.43019865  0.80323129  0.79551004     0.39200
C2974       C  0.35382944  0.74054117  0.77426905     0.36100
C2975       C  0.41556851  0.72579419  0.74913746     0.36800
C2976       C  0.36168910  0.79527260  0.70874346     0.40000
N2977       N  0.44486353  0.81743071  0.79880738    -0.38000
N2978       N  0.43609491  0.80080593  0.74885657    -0.39600
N2979       N  0.34378125  0.74529550  0.82046457    -0.37400
N2980       N  0.33740334  0.72937381  0.76950092    -0.39800
N2981       N  0.34009816  0.80396185  0.75362129    -0.39500
N2982       N  0.34930549  0.80794116  0.70036407    -0.37200
N2983       N  0.43132789  0.71257597  0.70416134    -0.38200
N2984       N  0.42575892  0.71109520  0.75731668    -0.39900
C2985       C  0.50405986  0.74610629  0.66670491    -0.04800
C2986       C  0.52138834  0.76470100  0.66677594     0.09300
C2987       C  0.51366664  0.78908334  0.66531971    -0.02200
C2988       C  0.48875432  0.79512161  0.66662054    -0.00500
C2989       C  0.47144398  0.77657134  0.66919651    -0.04100
C2990       C  0.47912232  0.75203984  0.66755916     0.02900
C2991       C  0.54726728  0.75904658  0.67118060     0.09800
C2992       C  0.53159420  0.80801909  0.66323000     0.35700
C2993       C  0.46130848  0.73289760  0.66653010     0.39100
C2994       C  0.56334972  0.74907695  0.65835069    -0.04400
C2995       C  0.58759884  0.74347035  0.66304429     0.02700
C2996       C  0.59608309  0.74872630  0.68040042    -0.04000
C2997       C  0.58007300  0.75964131  0.69298472    -0.00300
C2998       C  0.55566136  0.76412501  0.68853934    -0.02800
C2999       C  0.55501689  0.74507051  0.64026782     0.36400
C3000       C  0.58904829  0.76813321  0.71003944     0.40000
C3001       C  0.60366344  0.73212176  0.65003654     0.39200
C3002       C  0.53914478  0.77438434  0.70180617     0.36100
C3003       C  0.51193371  0.72089982  0.66642910     0.36800
C3004       C  0.48166728  0.82045093  0.66557780     0.40000
N3005       N  0.61630087  0.72298967  0.63955722    -0.38000
N3006       N  0.54834942  0.74199318  0.62582151    -0.39600
N3007       N  0.59613903  0.77524742  0.72355817    -0.37400
N3008       N  0.52592466  0.78260800  0.71230659    -0.39800
N3009       N  0.54582591  0.82314830  0.66149954    -0.39500
N3010       N  0.47726680  0.84094277  0.66414428    -0.37200
N3011       N  0.44708611  0.71766561  0.66546455    -0.38200
N3012       N  0.51825007  0.70079356  0.66606877    -0.39900
C3013       C  0.44850313  0.87833641  0.69579396    -0.04800
C3014       C  0.43711718  0.89445297  0.68372816     0.09300
C3015       C  0.42127373  0.88530396  0.67062569    -0.02200
C3016       C  0.41584907  0.86035601  0.67018598    -0.00500
C3017       C  0.42714910  0.84424501  0.68226954    -0.04100
C3018       C  0.44370303  0.85329598  0.69498385     0.02900
C3019       C  0.44001557  0.92128612  0.68589920     0.09800
C3020       C  0.41039341  0.90170877  0.65772040     0.35700
C3021       C  0.45651480  0.83670849  0.70680458     0.39100
C3022       C  0.46170797  0.93273928  0.68089316    -0.04400
C3023       C  0.46471355  0.95788510  0.68394931     0.02700
C3024       C  0.44548455  0.97220768  0.69142650    -0.04000
C3025       C  0.42333808  0.96037628  0.69574082    -0.00300
C3026       C  0.42094000  0.93512940  0.69338725    -0.02800
C3027       C  0.48100926  0.91846823  0.67255860     0.36400
C3028       C  0.40234754  0.97369185  0.70233568     0.40000
C3029       C  0.48810041  0.96816078  0.67972228     0.39200
C3030       C  0.39868946  0.92317564  0.69884002     0.36100
C3031       C  0.46501921  0.88756048  0.70915591     0.36800
C3032       C  0.39743606  0.85157733  0.65812112     0.40000
N3033       N  0.50713331  0.97512995  0.67581399    -0.38000
N3034       N  0.49635516  0.90707228  0.66590057    -0.39600
N3035       N  0.38498628  0.98309228  0.70783043    -0.37400
N3036       N  0.38100228  0.91359151  0.70313660    -0.39800
N3037       N  0.40189988  0.91487580  0.64739992    -0.39500
N3038       N  0.38237367  0.84474046  0.64872335    -0.37200
N3039       N  0.46683196  0.82338894  0.71608715    -0.38200
N3040       N  0.47829797  0.89488231  0.71975620    -0.39900
C3041       C  0.75782301  0.61672078  0.42291834    -0.04800
C3042       C  0.77935429  0.61693935  0.41266886     0.09300
C3043       C  0.78293640  0.63518337  0.39976692    -0.02200
C3044       C  0.76579554  0.65414078  0.39799131    -0.00500
C3045       C  0.74527830  0.65522505  0.40941481    -0.04100
C3046       C  0.74079263  0.63587736  0.42136650     0.02900
C3047       C  0.79923084  0.59915984  0.41644336     0.09800
C3048       C  0.80477715  0.63496153  0.38882695     0.35700
C3049       C  0.71955652  0.63633156  0.43291633     0.39100
C3050       C  0.80366356  0.57948682  0.40478745    -0.04400
C3051       C  0.82379712  0.56398564  0.40760326     0.02700
C3052       C  0.83934447  0.56801710  0.42224706    -0.04000
C3053       C  0.83435020  0.58721934  0.43426751    -0.00300
C3054       C  0.81437913  0.60280596  0.43132954    -0.02800
C3055       C  0.78764404  0.57548160  0.38978028     0.36400
C3056       C  0.84954651  0.59073438  0.44983442     0.40000
C3057       C  0.82914891  0.54469186  0.39492652     0.39200
C3058       C  0.80955749  0.62281254  0.44351602     0.36100
C3059       C  0.75378592  0.59724639  0.43558730     0.36800
C3060       C  0.76935948  0.67259926  0.38443212     0.40000
N3061       N  0.83346856  0.52935987  0.38478238    -0.38000
N3062       N  0.77482266  0.57236035  0.37781898    -0.39600
N3063       N  0.86169689  0.59344816  0.46222865    -0.37400
N3064       N  0.80565724  0.63869098  0.45328370    -0.39800
N3065       N  0.82218609  0.63473887  0.38009969    -0.39500
N3066       N  0.77214228  0.68727495  0.37358478    -0.37200
N3067       N  0.70262758  0.63664079  0.44214298    -0.38200
N3068       N  0.75068939  0.58169994  0.44570116    -0.39900
C3069       C  0.81015473  0.08583383  0.40506737    -0.04800
C3070       C  0.83279406  0.08437106  0.41370917     0.09300
C3071       C  0.83855606  0.06407425  0.42439985    -0.02200
C3072       C  0.82140459  0.04563671  0.42698397    -0.00500
C3073       C  0.79831493  0.04741576  0.41884835    -0.04100
C3074       C  0.79289645  0.06743668  0.40763554     0.02900
C3075       C  0.85005598  0.10498804  0.41275511     0.09800
C3076       C  0.86196812  0.06257066  0.43318103     0.35700
C3077       C  0.76973752  0.06901919  0.39850298     0.39100
C3078       C  0.84703420  0.12482593  0.42448378    -0.04400
C3079       C  0.86469018  0.14309962  0.42514259     0.02700
C3080       C  0.88579922  0.14129641  0.41431476    -0.04000
C3081       C  0.88836098  0.12174763  0.40216013    -0.00300
C3082       C  0.87029887  0.10386716  0.40119278    -0.02800
C3083       C  0.82596927  0.12602940  0.43620515     0.36400
C3084       C  0.90939786  0.12015052  0.39046010     0.40000
C3085       C  0.86150990  0.16313049  0.43757363     0.39200
C3086       C  0.87242135  0.08429910  0.38829262     0.36100
C3087       C  0.80461999  0.10643192  0.39367553     0.36800
C3088       C  0.82717475  0.02552929  0.43880162     0.40000
N3089       N  0.85883314  0.17910488  0.44746539    -0.38000
N3090       N  0.80912694  0.12687123  0.44550376    -0.39600
N3091       N  0.92622603  0.11885636  0.38117030    -0.37400
N3092       N  0.87398167  0.06878907  0.37790426    -0.39800
N3093       N  0.88065470  0.06141218  0.44015663    -0.39500
N3094       N  0.83175788  0.00952284  0.44825198    -0.37200
N3095       N  0.75126779  0.07030752  0.39122508    -0.38200
N3096       N  0.80024408  0.12287272  0.38458445    -0.39900
C3097       C  0.76182693  0.82122934  0.43955840    -0.04800
C3098       C  0.76510860  0.83577963  0.42426594     0.09300
C3099       C  0.76322877  0.82526252  0.40715951    -0.02200
C3100       C  0.75463693  0.80138391  0.40533399    -0.00500
C3101       C  0.74754920  0.78820447  0.42064750    -0.04100
C3102       C  0.75231601  0.79772174  0.43780638     0.02900
C3103       C  0.76329423  0.86276764  0.42609099     0.09800
C3104       C  0.76835844  0.83966842  0.39141647     0.35700
C3105       C  0.74637766  0.78385616  0.45368007     0.39100
C3106       C  0.78320140  0.87788686  0.42271739    -0.04400
C3107       C  0.78024499  0.90343258  0.42327808     0.02700
C3108       C  0.75722497  0.91410738  0.42760290    -0.04000
C3109       C  0.73734982  0.89844132  0.43117596    -0.00300
C3110       C  0.74048777  0.87311690  0.43035565    -0.02800
C3111       C  0.80671916  0.86704336  0.41862730     0.36400
C3112       C  0.71321121  0.90781597  0.43538717     0.40000
C3113       C  0.80103520  0.91835927  0.41906611     0.39200
C3114       C  0.72000580  0.85736262  0.43382981     0.36100
C3115       C  0.76620774  0.83138883  0.45711443     0.36800
C3116       C  0.75096064  0.79136928  0.38764619     0.40000
N3117       N  0.81770510  0.93009498  0.41557132    -0.38000
N3118       N  0.82545650  0.85836187  0.41533539    -0.39600
N3119       N  0.69386913  0.91500745  0.43870974    -0.37400
N3120       N  0.70416931  0.84432719  0.43677754    -0.39800
N3121       N  0.77257339  0.85116565  0.37887608    -0.39500
N3122       N  0.74800450  0.78338644  0.37353536    -0.37200
N3123       N  0.74146126  0.77292004  0.46635854    -0.38200
N3124       N  0.76975603  0.83954254  0.47109394    -0.39900
C3125       C  0.78721580  0.64757174  0.61788566    -0.04800
C3126       C  0.78327662  0.62991154  0.63116659     0.09300
C3127       C  0.76233394  0.63113469  0.64203148    -0.02200
C3128       C  0.74536383  0.65018966  0.63971437    -0.00500
C3129       C  0.74959061  0.66823765  0.62669552    -0.04100
C3130       C  0.77049334  0.66679378  0.61570876     0.02900
C3131       C  0.80222577  0.61097848  0.63430934     0.09800
C3132       C  0.75872237  0.61321165  0.65593773     0.35700
C3133       C  0.77476231  0.68496568  0.60205166     0.39100
C3134       C  0.82080997  0.61547480  0.64669149    -0.04400
C3135       C  0.84083941  0.59949592  0.64783893     0.02700
C3136       C  0.84242109  0.57899977  0.63646594    -0.04000
C3137       C  0.82304866  0.57383118  0.62475110    -0.00300
C3138       C  0.80299746  0.58986953  0.62368359    -0.02800
C3139       C  0.81975812  0.63718405  0.65768468     0.36400
C3140       C  0.82440784  0.55300829  0.61288372     0.40000
C3141       C  0.85989108  0.60435306  0.66064779     0.39200
C3142       C  0.78368292  0.58535735  0.61103857     0.36100
C3143       C  0.80883161  0.64617823  0.60673058     0.36800
C3144       C  0.72424895  0.65189887  0.65134348     0.40000
N3145       N  0.87507587  0.60829473  0.67084674    -0.38000
N3146       N  0.81885087  0.65455588  0.66637476    -0.39600
N3147       N  0.82551975  0.53643239  0.60339353    -0.37400
N3148       N  0.76831343  0.58183533  0.60090692    -0.39800
N3149       N  0.75593232  0.59898935  0.66710371    -0.39500
N3150       N  0.70741993  0.65333389  0.66062474    -0.37200
N3151       N  0.77822726  0.69946963  0.59118853    -0.38200
N3152       N  0.82609477  0.64497099  0.59787944    -0.39900
C3153       C  0.67768340  0.74032756  0.53610188    -0.04800
C3154       C  0.67305919  0.71717318  0.52892179     0.09300
C3155       C  0.66831531  0.69760822  0.54052895    -0.02200
C3156       C  0.66968300  0.70081227  0.55924954    -0.00500
C3157       C  0.67596951  0.72367522  0.56646229    -0.04100
C3158       C  0.67894236  0.74362973  0.55474789     0.02900
C3159       C  0.67579335  0.71312420  0.50919767     0.09800
C3160       C  0.66320868  0.67390274  0.53309739     0.35700
C3161       C  0.68363467  0.76765267  0.56183180     0.39100
C3162       C  0.69819458  0.70461465  0.50231860    -0.04400
C3163       C  0.70236963  0.70408513  0.48372932     0.02700
C3164       C  0.68412945  0.71224350  0.47173195    -0.04000
C3165       C  0.66102457  0.71905428  0.47867348    -0.00300
C3166       C  0.65695581  0.71953306  0.49734584    -0.02800
C3167       C  0.71721546  0.69689826  0.51449032     0.36400
C3168       C  0.64167946  0.72663899  0.46677886     0.40000
C3169       C  0.72555322  0.69496019  0.47706359     0.39200
C3170       C  0.63353077  0.72711093  0.50446125     0.36100
C3171       C  0.68239460  0.76055255  0.52421352     0.36800
C3172       C  0.66617895  0.68013983  0.57091327     0.40000
N3173       N  0.74406691  0.68771076  0.47180168    -0.38000
N3174       N  0.73228368  0.69066245  0.52424210    -0.39600
N3175       N  0.62617480  0.73263073  0.45731600    -0.37400
N3176       N  0.61482957  0.73309973  0.51017017    -0.39800
N3177       N  0.65925588  0.65500435  0.52708350    -0.39500
N3178       N  0.66336207  0.66357762  0.58016448    -0.37200
N3179       N  0.68740996  0.78681250  0.56745193    -0.38200
N3180       N  0.68623437  0.77663419  0.51471358    -0.39900
C3181       C  0.83086183  0.07741715  0.64075490    -0.04800
C3182       C  0.82049673  0.09993181  0.64575924     0.09300
C3183       C  0.79654935  0.10106853  0.65237725    -0.02200
C3184       C  0.78249838  0.07983484  0.65312989    -0.00500
C3185       C  0.79215268  0.05746780  0.64671245    -0.04100
C3186       C  0.81679909  0.05624231  0.64115834     0.02900
C3187       C  0.83500476  0.12237160  0.64340034     0.09800
C3188       C  0.78638313  0.12414760  0.65825488     0.35700
C3189       C  0.82772979  0.03349563  0.63526543     0.39100
C3190       C  0.83425263  0.13486761  0.62698452    -0.04400
C3191       C  0.85143633  0.15293216  0.62321572     0.02700
C3192       C  0.86979994  0.15809887  0.63574474    -0.04000
C3193       C  0.86947770  0.14662751  0.65266256    -0.00300
C3194       C  0.85181782  0.12910017  0.65655187    -0.02800
C3195       C  0.81632029  0.12842512  0.61372228     0.36400
C3196       C  0.88729059  0.15277681  0.66611497     0.40000
C3197       C  0.85095026  0.16515149  0.60605772     0.39200
C3198       C  0.85110177  0.11762852  0.67396993     0.36100
C3199       C  0.85599873  0.07623812  0.63479483     0.36800
C3200       C  0.75844504  0.08093769  0.66111632     0.40000
N3201       N  0.85053389  0.17496089  0.59239934    -0.38000
N3202       N  0.80200486  0.12327510  0.60315316    -0.39600
N3203       N  0.90155810  0.15758853  0.67681304    -0.37400
N3204       N  0.85035276  0.10863180  0.68791642    -0.39800
N3205       N  0.77827817  0.14257242  0.66293438    -0.39500
N3206       N  0.73935667  0.08177312  0.66765138    -0.37200
N3207       N  0.83664204  0.01541296  0.63063309    -0.38200
N3208       N  0.87605935  0.07545855  0.63011538    -0.39900
C3209       C  0.70654848  0.99993944  0.55524969    -0.04800
C3210       C  0.72657601  0.00536101  0.54414690     0.09300
C3211       C  0.74912425  0.01063322  0.55202444    -0.02200
C3212       C  0.75167955  0.01061866  0.57078868    -0.00500
C3213       C  0.73191460  0.00417792  0.58205670    -0.04100
C3214       C  0.70927285  0.99883825  0.57405028     0.02900
C3215       C  0.72452646  0.00419978  0.52410227     0.09800
C3216       C  0.77000885  0.01541892  0.54070305     0.35700
C3217       C  0.68906847  0.99076232  0.58493050     0.39100
C3218       C  0.72435664  0.02567072  0.51373545    -0.04400
C3219       C  0.72502427  0.02436976  0.49485195     0.02700
C3220       C  0.72654621  0.00158068  0.48621797    -0.04000
C3221       C  0.72527978  0.98015665  0.49655912    -0.00300
C3222       C  0.72447284  0.98144878  0.51538151    -0.02800
C3223       C  0.72467827  0.04910467  0.52255179     0.36400
C3224       C  0.72453496  0.95667909  0.48776015     0.40000
C3225       C  0.72516680  0.04648868  0.48436971     0.39200
C3226       C  0.72476523  0.95927694  0.52581667     0.36100
C3227       C  0.68317249  0.99509716  0.54722528     0.36800
C3228       C  0.77482050  0.01752873  0.57836194     0.40000
N3229       N  0.72513060  0.06413977  0.47599504    -0.38000
N3230       N  0.72525047  0.06778829  0.52960571    -0.39600
N3231       N  0.72378171  0.93802707  0.48066728    -0.37400
N3232       N  0.72506799  0.94158689  0.53414204    -0.39800
N3233       N  0.78662624  0.01913927  0.53162652    -0.39500
N3234       N  0.79330063  0.02305236  0.58434537    -0.37200
N3235       N  0.67294575  0.98408189  0.59352423    -0.38200
N3236       N  0.66454356  0.99127118  0.54077299    -0.39900
C3237       C  0.77456574  0.82405002  0.63058775    -0.04800
C3238       C  0.76134850  0.84522480  0.62620925     0.09300
C3239       C  0.73756784  0.84341302  0.61945879    -0.02200
C3240       C  0.72652244  0.82062289  0.61795190    -0.00500
C3241       C  0.73905602  0.79931895  0.62348638    -0.04100
C3242       C  0.76341871  0.80114014  0.62945826     0.02900
C3243       C  0.77099072  0.86980956  0.63025976     0.09800
C3244       C  0.72413681  0.86524494  0.61452007     0.35700
C3245       C  0.77676764  0.77975834  0.63533334     0.39100
C3246       C  0.77754966  0.88539292  0.61616036    -0.04400
C3247       C  0.77764658  0.91067144  0.61896764     0.02700
C3248       C  0.77220829  0.92019113  0.63604826    -0.04000
C3249       C  0.76953193  0.90436547  0.65069245    -0.00300
C3250       C  0.76847234  0.87913860  0.64774600    -0.02800
C3251       C  0.78224538  0.87546955  0.59852293     0.36400
C3252       C  0.76574346  0.91409342  0.66850096     0.40000
C3253       C  0.78190692  0.92698375  0.60410401     0.39200
C3254       C  0.76253318  0.86297241  0.66237018     0.36100
C3255       C  0.79952954  0.82597569  0.63647097     0.36800
C3256       C  0.70223439  0.81936704  0.61055748     0.40000
N3257       N  0.78524194  0.94003192  0.59225965    -0.38000
N3258       N  0.78602897  0.86751155  0.58446366    -0.39600
N3259       N  0.76275097  0.92180233  0.68273216    -0.37400
N3260       N  0.75769178  0.84993846  0.67392834    -0.39800
N3261       N  0.71351882  0.88270269  0.61065098    -0.39500
N3262       N  0.68284663  0.81853957  0.60469781    -0.37200
N3263       N  0.78745023  0.76275045  0.64008142    -0.38200
N3264       N  0.81948970  0.82750785  0.64107565    -0.39900
C3265       C  0.74914799  0.63467939  0.14317168    -0.04800
C3266       C  0.76613530  0.63454835  0.12902195     0.09300
C3267       C  0.76442428  0.65205592  0.11535655    -0.02200
C3268       C  0.74545540  0.66944363  0.11566984    -0.00500
C3269       C  0.72736263  0.66839413  0.12909418    -0.04100
C3270       C  0.72971822  0.65148564  0.14316763     0.02900
C3271       C  0.78513954  0.61512751  0.12819740     0.09800
C3272       C  0.78147082  0.65132665  0.10052853     0.35700
C3273       C  0.71231491  0.65160094  0.15779193     0.39100
C3274       C  0.78119400  0.59423598  0.11780431    -0.04400
C3275       C  0.79803807  0.57484020  0.11817891     0.02700
C3276       C  0.81887677  0.57615328  0.12915447    -0.04000
C3277       C  0.82315031  0.59754963  0.13910882    -0.00300
C3278       C  0.80638213  0.61704439  0.13847908    -0.02800
C3279       C  0.75969916  0.59275898  0.10672216     0.36400
C3280       C  0.84422572  0.59929220  0.15057888     0.40000
C3281       C  0.79409721  0.55385279  0.10685872     0.39200
C3282       C  0.81085012  0.63912246  0.14845456     0.36100
C3283       C  0.75118769  0.61687270  0.15737295     0.36800
C3284       C  0.74428638  0.68792302  0.10191294     0.40000
N3285       N  0.79091958  0.53716591  0.09779875    -0.38000
N3286       N  0.74261568  0.59170585  0.09782477    -0.39600
N3287       N  0.86100337  0.60073542  0.15975560    -0.37400
N3288       N  0.81441890  0.65680154  0.15632745    -0.39800
N3289       N  0.79486365  0.65044543  0.08858067    -0.39500
N3290       N  0.74367657  0.70287980  0.09107661    -0.37200
N3291       N  0.69848786  0.65177470  0.16948382    -0.38200
N3292       N  0.75285285  0.60263392  0.16866775    -0.39900
C3293       C  0.28615360  0.69318366  0.12482985    -0.04800
C3294       C  0.28408487  0.67128845  0.11525987     0.09300
C3295       C  0.30184885  0.66471033  0.10245309    -0.02200
C3296       C  0.32227513  0.67941752  0.09987154    -0.00500
C3297       C  0.32557749  0.70010520  0.11071295    -0.04100
C3298       C  0.30720148  0.70724969  0.12296530     0.02900
C3299       C  0.26558943  0.65319877  0.12064615     0.09800
C3300       C  0.29968431  0.64214263  0.09259260     0.35700
C3301       C  0.31071789  0.72790868  0.13466905     0.39100
C3302       C  0.24547298  0.64846754  0.10967137    -0.04400
C3303       C  0.23087539  0.62811629  0.11311289     0.02700
C3304       C  0.23590595  0.61308538  0.12801622    -0.04000
C3305       C  0.25476385  0.61927118  0.13984927    -0.00300
C3306       C  0.26986874  0.63894009  0.13595960    -0.02800
C3307       C  0.24043898  0.66405601  0.09450121     0.36400
C3308       C  0.25894511  0.60516426  0.15593830     0.40000
C3309       C  0.21204418  0.62170260  0.10051950     0.39200
C3310       C  0.29068088  0.64373258  0.14721062     0.36100
C3311       C  0.26700652  0.70061991  0.13710648     0.36800
C3312       C  0.33979648  0.67329290  0.08599465     0.40000
N3313       N  0.19717586  0.61654317  0.09036769    -0.38000
N3314       N  0.23638671  0.67656240  0.08244244    -0.39600
N3315       N  0.26225639  0.59389526  0.16875059    -0.37400
N3316       N  0.30734822  0.64753927  0.15609721    -0.39800
N3317       N  0.29791852  0.62408005  0.08482699    -0.39500
N3318       N  0.35364340  0.66849102  0.07482544    -0.37200
N3319       N  0.31364989  0.74421494  0.14414217    -0.38200
N3320       N  0.25164113  0.70658405  0.14681421    -0.39900
C3321       C  0.50919689  0.70965320  0.10616557    -0.04800
C3322       C  0.51292358  0.68544821  0.11182881     0.09300
C3323       C  0.49276390  0.67106063  0.11618336    -0.02200
C3324       C  0.46905317  0.68121093  0.11595311    -0.00500
C3325       C  0.46523477  0.70576395  0.11074818    -0.04100
C3326       C  0.48559811  0.71974884  0.10556591     0.02900
C3327       C  0.53840739  0.67617854  0.11409003     0.09800
C3328       C  0.49650109  0.64570504  0.12072745     0.35700
C3329       C  0.48256894  0.74450645  0.09921670     0.39100
C3330       C  0.54863130  0.67502720  0.13133958    -0.04400
C3331       C  0.57404321  0.67582820  0.13340975     0.02700
C3332       C  0.58908654  0.67779496  0.11820509    -0.04000
C3333       C  0.57905470  0.67500576  0.10102914    -0.00300
C3334       C  0.55368991  0.67366419  0.09901065    -0.02800
C3335       C  0.53302530  0.67406375  0.14694085     0.36400
C3336       C  0.59478152  0.67479689  0.08542298     0.40000
C3337       C  0.58449251  0.67689824  0.15113625     0.39200
C3338       C  0.54315138  0.67141128  0.08139344     0.36100
C3339       C  0.52981526  0.72426476  0.10081067     0.36800
C3340       C  0.44885875  0.66643978  0.12174522     0.40000
N3341       N  0.59287474  0.67776716  0.16526052    -0.38000
N3342       N  0.52059506  0.67264481  0.15938693    -0.39600
N3343       N  0.60737933  0.67466528  0.07300398    -0.37400
N3344       N  0.53471815  0.66952000  0.06734569    -0.39800
N3345       N  0.49956492  0.62546469  0.12429229    -0.39500
N3346       N  0.43283115  0.65457277  0.12643324    -0.37200
N3347       N  0.48030632  0.76426048  0.09417667    -0.38200
N3348       N  0.54627000  0.73573902  0.09639284    -0.39900
C3349       C  0.72956735  0.62415581  0.90800615    -0.04800
C3350       C  0.75078330  0.62882618  0.91778293     0.09300
C3351       C  0.75354575  0.65135328  0.92639105    -0.02200
C3352       C  0.73432716  0.66849665  0.92644340    -0.00500
C3353       C  0.71239244  0.66344131  0.91735127    -0.04100
C3354       C  0.71052383  0.64145750  0.90760631     0.02900
C3355       C  0.76986881  0.60955016  0.91957322     0.09800
C3356       C  0.77633344  0.65690322  0.93506979     0.35700
C3357       C  0.68949703  0.63688846  0.89654060     0.39100
C3358       C  0.79044643  0.60949555  0.90832003    -0.04400
C3359       C  0.80822237  0.59101103  0.90990932     0.02700
C3360       C  0.80571102  0.57273821  0.92306780    -0.04000
C3361       C  0.78503103  0.57291678  0.93435629    -0.00300
C3362       C  0.76710382  0.59117295  0.93250098    -0.02800
C3363       C  0.79318641  0.62845870  0.89505554     0.36400
C3364       C  0.78246803  0.55480611  0.94828823     0.40000
C3365       C  0.82852541  0.59030854  0.89747469     0.39200
C3366       C  0.74576729  0.59115753  0.94395819     0.36100
C3367       C  0.72758541  0.60158351  0.89814022     0.36800
C3368       C  0.73710673  0.69094253  0.93634511     0.40000
N3369       N  0.84462204  0.58969703  0.88747671    -0.38000
N3370       N  0.79534988  0.64368735  0.88455051    -0.39600
N3371       N  0.78044309  0.54037657  0.95940615    -0.37400
N3372       N  0.72870014  0.59110841  0.95304042    -0.39800
N3373       N  0.79465458  0.66141294  0.94174335    -0.39500
N3374       N  0.73946535  0.70882166  0.94424647    -0.37200
N3375       N  0.67284133  0.63324907  0.88759776    -0.38200
N3376       N  0.72615463  0.58360073  0.89023478    -0.39900
C3377       C  0.63780935  0.73697586  0.00351090    -0.04800
C3378       C  0.65932081  0.74580638  0.01120947     0.09300
C3379       C  0.67821997  0.75400070  0.99999257    -0.02200
C3380       C  0.67681185  0.75079663  0.98128163    -0.00500
C3381       C  0.65600126  0.74023913  0.97364319    -0.04100
C3382       C  0.63595028  0.73470803  0.98480360     0.02900
C3383       C  0.66333043  0.74307434  0.03093018     0.09800
C3384       C  0.69951361  0.76484771  0.00786715     0.35700
C3385       C  0.61333842  0.72653610  0.97704938     0.39100
C3386       C  0.67764826  0.72346070  0.03716449    -0.04400
C3387       C  0.67937048  0.71867469  0.05560040     0.02700
C3388       C  0.66659588  0.73337528  0.06811182    -0.04000
C3389       C  0.65290162  0.75357921  0.06187045    -0.00300
C3390       C  0.65148504  0.75849972  0.04335320    -0.02800
C3391       C  0.69000273  0.70758842  0.02447662     0.36400
C3392       C  0.63879784  0.76830925  0.07429843     0.40000
C3393       C  0.69405727  0.69820569  0.06154710     0.39200
C3394       C  0.63734780  0.77908658  0.03700151     0.36100
C3395       C  0.61803216  0.72904615  0.01490915     0.36800
C3396       C  0.69750615  0.75668066  0.97013321     0.40000
N3397       N  0.70562111  0.68168659  0.06610695    -0.38000
N3398       N  0.69986303  0.69500274  0.01432967    -0.39600
N3399       N  0.62739840  0.77995519  0.08419281    -0.37400
N3400       N  0.62606733  0.79552305  0.03193350    -0.39800
N3401       N  0.71640999  0.77359393  0.01423512    -0.39500
N3402       N  0.71411426  0.76124852  0.96127271    -0.37200
N3403       N  0.59525735  0.72017220  0.97087297    -0.38200
N3404       N  0.60230857  0.72271035  0.02403513    -0.39900
C3405       C  0.27416813  0.67823629  0.91193492    -0.04800
C3406       C  0.27630051  0.65555225  0.90331059     0.09300
C3407       C  0.29559562  0.65114673  0.89127168    -0.02200
C3408       C  0.31411564  0.66832613  0.88929211    -0.00500
C3409       C  0.31350978  0.68997283  0.89948591    -0.04100
C3410       C  0.29279673  0.69545016  0.91010952     0.02900
C3411       C  0.26026829  0.63510082  0.90858702     0.09800
C3412       C  0.29688656  0.62835231  0.88155814     0.35700
C3413       C  0.29132382  0.71791461  0.92020626     0.39100
C3414       C  0.23677861  0.63294254  0.90142238    -0.04400
C3415       C  0.22254533  0.61257743  0.90566809     0.02700
C3416       C  0.23197505  0.59413798  0.91694409    -0.04000
C3417       C  0.25521836  0.59685230  0.92458017    -0.00300
C3418       C  0.26934314  0.61716924  0.92032089    -0.02800
C3419       C  0.22772727  0.65120581  0.88912305     0.36400
C3420       C  0.26454689  0.57895029  0.93708937     0.40000
C3421       C  0.19870482  0.61015888  0.89773208     0.39200
C3422       C  0.29362354  0.61931384  0.92760747     0.36100
C3423       C  0.25331147  0.68337746  0.92328767     0.36800
C3424       C  0.33398932  0.66346488  0.87694343     0.40000
N3425       N  0.17967524  0.60827755  0.89141031    -0.38000
N3426       N  0.22058219  0.66577099  0.87927195    -0.39600
N3427       N  0.27197369  0.56471207  0.94708786    -0.37400
N3428       N  0.31307546  0.62095237  0.93323812    -0.39800
N3429       N  0.29787139  0.61011173  0.87389673    -0.39500
N3430       N  0.34982886  0.65956064  0.86709711    -0.37200
N3431       N  0.29010778  0.73581082  0.92828883    -0.38200
N3432       N  0.23656186  0.68754599  0.93222063    -0.39900
C3433       C  0.35761123  0.74898478  0.99041445    -0.04800
C3434       C  0.37184305  0.76842781  0.99647778     0.09300
C3435       C  0.38240225  0.78436135  0.98399503    -0.02200
C3436       C  0.38043680  0.77972429  0.96549721    -0.00500
C3437       C  0.36771935  0.75914058  0.95942888    -0.04100
C3438       C  0.35555241  0.74432628  0.97198016     0.02900
C3439       C  0.37832584  0.76989062  0.01584255     0.09800
C3440       C  0.39625864  0.80486055  0.99028808     0.35700
C3441       C  0.34150903  0.72373333  0.96597399     0.39100
C3442       C  0.39988442  0.75853023  0.02180889    -0.04400
C3443       C  0.40482912  0.75692833  0.04020818     0.02700
C3444       C  0.38766306  0.76561329  0.05290539    -0.04000
C3445       C  0.36684888  0.77851274  0.04684934    -0.00300
C3446       C  0.36235316  0.78078857  0.02833578    -0.02800
C3447       C  0.41648658  0.74747388  0.00897483     0.36400
C3448       C  0.34932901  0.78832752  0.05952361     0.40000
C3449       C  0.42775073  0.74640175  0.04603836     0.39200
C3450       C  0.34091324  0.79364974  0.02207065     0.36100
C3451       C  0.34606569  0.73302725  0.00323238     0.36800
C3452       C  0.39329431  0.79493501  0.95288465     0.40000
N3453       N  0.44608703  0.73816593  0.05069771    -0.38000
N3454       N  0.42959455  0.73855364  0.99870606    -0.39600
N3455       N  0.33529447  0.79621530  0.06958573    -0.37400
N3456       N  0.32386761  0.80397500  0.01700952    -0.39800
N3457       N  0.40729260  0.82121722  0.99535629    -0.39500
N3458       N  0.40367166  0.80697978  0.94282313    -0.37200
N3459       N  0.33045885  0.70723720  0.96116284    -0.38200
N3460       N  0.33685530  0.72032475  0.01346724    -0.39900
C3461       C  0.53263740  0.71402448  0.92164595    -0.04800
C3462       C  0.52381525  0.69019739  0.92050548     0.09300
C3463       C  0.54008871  0.67035848  0.92020364    -0.02200
C3464       C  0.56537867  0.67433473  0.92017036    -0.00500
C3465       C  0.57448250  0.69837264  0.92012041    -0.04100
C3466       C  0.55775477  0.71822345  0.92098620     0.02900
C3467       C  0.49722888  0.68666399  0.91846365     0.09800
C3468       C  0.53064026  0.64588873  0.92014885     0.35700
C3469       C  0.56593404  0.74319606  0.92032673     0.39100
C3470       C  0.48723884  0.68598831  0.90115003    -0.04400
C3471       C  0.46224594  0.69036109  0.89876965     0.02700
C3472       C  0.44731157  0.69508916  0.91374399    -0.04000
C3473       C  0.45684682  0.69302404  0.93114147    -0.00300
C3474       C  0.48186258  0.68878467  0.93349857    -0.02800
C3475       C  0.50296174  0.68267910  0.88572050     0.36400
C3476       C  0.44108800  0.69643943  0.94655917     0.40000
C3477       C  0.45241589  0.69256462  0.88088415     0.39200
C3478       C  0.49213121  0.68836537  0.95128996     0.36100
C3479       C  0.51566097  0.73439078  0.92298593     0.36800
C3480       C  0.58177584  0.65355425  0.92052413     0.40000
N3481       N  0.44445056  0.69452866  0.86668092    -0.38000
N3482       N  0.51543982  0.68007159  0.87337022    -0.39600
N3483       N  0.42848914  0.69917580  0.95883215    -0.37400
N3484       N  0.50038142  0.68809688  0.96547041    -0.39800
N3485       N  0.52295974  0.62641965  0.92020366    -0.39500
N3486       N  0.59474383  0.63687267  0.92083845    -0.37200
N3487       N  0.57230162  0.76313613  0.91972300    -0.38200
N3488       N  0.50212104  0.75056962  0.92400688    -0.39900
loop_ 
_geom_bond_atom_site_label_1 
_geom_bond_atom_site_label_2 
_geom_bond_distance 
_geom_bond_site_symmetry_2 
_ccdc_geom_bond_type 
O1            C4   1.271       .  A
O1           Cd6   2.505       .  S
C2           O11   1.263       .  A
C2            O7   1.265       .  A
C2          C158   1.479       .  S
O3            C9   1.266       .  A
O3           Cd6   2.465       .  S
C4           O12   1.263       .  A
C4         C3437   1.488       .  S
C5           O10   1.266       .  A
C5            O8   1.269       .  A
C5         C3409   1.485       .  S
Cd6          O13   2.402       .  S
Cd6          O12   2.408       .  S
Cd6          O11   2.469       .  S
Cd6           O7   2.483       .  S
Cd6          O10   2.413       .  S
Cd6           O8   2.467       .  S
C9           O13   1.262       .  A
C9         C3472   1.469       .  S
O14          C17   1.264       .  A
O14         Cd19   2.423       .  S
C15          O24   1.262       .  A
C15          O20   1.268       .  A
C15         C194   1.485       .  S
O16          C22   1.269       .  A
O16         Cd19   2.448       .  S
C17          O25   1.273       .  A
C17        C3381   1.493       .  S
C18          O23   1.269       .  A
C18          O21   1.261       .  A
C18        C3465   1.494       .  S
Cd19         O26   2.441       .  S
Cd19         O25   2.519       .  S
Cd19         O24   2.482       .  S
Cd19         O20   2.492       .  S
Cd19         O23   2.490       .  S
Cd19         O21   2.403       .  S
C22          O26   1.267       .  A
C22        C3353   1.491       .  S
O27          C30   1.268       .  A
O27         Cd32   2.457       .  S
C28          O37   1.262       .  A
C28          O33   1.268       .  A
C28        C3444   1.493       .  S
O29          C35   1.267       .  A
O29         Cd32   2.483       .  S
C30          O38   1.265       .  A
C30         C330   1.476       .  S
C31          O36   1.267       .  A
C31          O34   1.265       .  A
C31        C3297   1.478       .  S
Cd32         O39   2.441       .  S
Cd32         O38   2.467       .  S
Cd32         O37   2.430       .  S
Cd32         O33   2.516       .  S
Cd32         O36   2.441       .  S
Cd32         O34   2.436       .  S
C35          O39   1.265       .  A
C35        C3325   1.498       .  S
O40          C43   1.267       .  A
O40         Cd45   2.477       .  S
C41          O50   1.265       .  A
C41          O46   1.271       .  A
C41        C3388   1.494       .  S
O42          C48   1.266       .  A
O42         Cd45   2.423       .  S
C43          O51   1.262       .  A
C43         C318   1.474       .  S
C44          O49   1.266       .  A
C44          O47   1.261       .  A
C44        C3332   1.475       .  S
Cd45         O52   2.464       .  S
Cd45         O51   2.467       .  S
Cd45         O50   2.424       .  S
Cd45         O46   2.496       .  S
Cd45         O49   2.491       .  S
Cd45         O47   2.416       .  S
C48          O52   1.267       .  A
C48        C3269   1.478       .  S
O53          C56   1.273       .  A
O53         Cd58   2.530   1_545  S
C54          O63   1.262       .  A
C54          O59   1.269       .  A
C54         C146   1.486       .  S
O55          C61   1.266       .  A
O55         Cd58   2.497       .  S
C56          O64   1.264   1_545  A
C56        C3213   1.506       .  S
C57          O62   1.267       .  A
C57          O60   1.267       .  A
C57        C3185   1.490       .  S
Cd58         O65   2.418       .  S
Cd58         O64   2.439       .  S
Cd58         O63   2.468       .  S
Cd58         O59   2.523       .  S
Cd58         O62   2.449   1_565  S
Cd58         O60   2.448   1_565  S
C61          O65   1.262       .  A
C61        C3248   1.474       .  S
O66          C69   1.268       .  A
O66         Cd71   2.533       .  S
C67          O76   1.263       .  A
C67          O72   1.267       .  A
C67         C134   1.481       .  S
O68          C74   1.265       .  A
O68         Cd71   2.421       .  S
C69          O77   1.260       .  A
C69        C3157   1.495       .  S
C70          O75   1.265       .  A
C70          O73   1.266       .  A
C70        C3241   1.491       .  S
Cd71         O78   2.447       .  S
Cd71         O77   2.435       .  S
Cd71         O76   2.478       .  S
Cd71         O72   2.481       .  S
Cd71         O75   2.461       .  S
Cd71         O73   2.438       .  S
C74          O78   1.267       .  A
C74        C3129   1.475       .  S
O79          C82   1.267       .  A
O79         Cd84   2.451       .  S
C80          O89   1.269   1_565  A
C80          O85   1.264       .  A
C80        C3220   1.491   1_565  S
O81          C87   1.263       .  A
O81         Cd84   2.408       .  S
C82          O90   1.263       .  A
C82         C258   1.475       .  S
C83          O88   1.266       .  A
C83          O86   1.266       .  A
C83        C3073   1.483       .  S
Cd84         O91   2.488       .  S
Cd84         O90   2.481       .  S
Cd84         O89   2.520   1_565  S
Cd84         O85   2.443       .  S
Cd84         O88   2.443   1_565  S
Cd84         O86   2.443   1_565  S
C87          O91   1.267       .  A
C87        C3108   1.505       .  S
O92          C95   1.266       .  A
O92         Cd97   2.502       .  S
C93         O102   1.263       .  A
C93          O98   1.271       .  A
C93        C3164   1.497       .  S
O94         C100   1.263       .  A
O94         Cd97   2.417       .  S
C95         O103   1.262       .  A
C95         C270   1.481       .  S
C96         O101   1.265       .  A
C96          O99   1.264       .  A
C96        C3101   1.481       .  S
Cd97        O104   2.471       .  S
Cd97        O103   2.474       .  S
Cd97        O102   2.425       .  S
Cd97         O98   2.512       .  S
Cd97        O101   2.471       .  S
Cd97         O99   2.446       .  S
C100        O104   1.266       .  A
C100       C3045   1.481       .  S
C105        C106   1.538       .  S
C105        C111   1.548       .  S
C105        C109   1.536       .  S
C105       C2961   1.552       .  S
C106        H113   1.086       .  S
C106        C107   1.360       .  D
C107       C3017   1.487       .  S
C107        C108   1.541       .  S
C108        C112   1.535       .  S
C108        C110   1.537       .  S
C108        H114   1.110       .  S
C109        H115   1.086       .  S
C109        C110   1.369       .  D
C110        C363   1.478       .  S
C111        H116   1.081       .  S
C111        C112   1.371       .  D
C112       C2989   1.497       .  S
C117        C118   1.537       .  S
C117        C123   1.547       .  S
C117        C121   1.537       .  S
C117       C2912   1.549       .  S
C118        H125   1.082       .  S
C118        C119   1.359       .  D
C119       C2933   1.487       .  S
C119        C120   1.540       .  S
C120        C124   1.546   1_545  S
C120        C122   1.541       .  S
C120        H126   1.108       .  S
C121        H127   1.086       .  S
C121        C122   1.371       .  D
C122        C350   1.484       .  S
C123        H128   1.085   1_545  S
C123        C124   1.372   1_545  D
C124       C3024   1.515       .  S
C129        C130   1.544       .  S
C129        C135   1.546       .  S
C129        C133   1.541       .  S
C129       C2849   1.557       .  S
C130        H137   1.080       .  S
C130        C131   1.365       .  D
C131       C2996   1.491       .  S
C131        C132   1.537       .  S
C132        C136   1.539       .  S
C132        C134   1.537       .  S
C132        H138   1.109       .  S
C133        H139   1.086       .  S
C133        C134   1.372       .  D
C135        H140   1.086       .  S
C135        C136   1.369       .  D
C136       C2877   1.506       .  S
C141        C142   1.532       .  S
C141        C147   1.542   1_565  S
C141        C145   1.552       .  S
C141       C2821   1.567       .  S
C142        H149   1.087       .  S
C142        C143   1.364       .  D
C143       C2884   1.500       .  S
C143        C144   1.545       .  S
C144        C148   1.538       .  S
C144        C146   1.540       .  S
C144        H150   1.109       .  S
C145        H151   1.082   1_565  S
C145        C146   1.374       .  D
C147        H152   1.084       .  S
C147        C148   1.368   1_545  D
C148       C2940   1.500       .  S
C153        C154   1.541       .  S
C153        C159   1.524       .  S
C153        C157   1.545       .  S
C153       C2968   1.557       .  S
C154        H161   1.084       .  S
C154        C155   1.365       .  D
C155       C2765   1.519       .  S
C155        C156   1.545       .  S
C156        C160   1.554       .  S
C156        C158   1.544       .  S
C156        H162   1.105       .  S
C157        H163   1.081       .  S
C157        C158   1.373       .  D
C159        H164   1.083       .  S
C159        C160   1.362       .  D
C160       C2793   1.506       .  S
C165        C166   1.535   1_545  S
C165        C171   1.536       .  S
C165        C169   1.558       .  S
C165       C2905   1.563       .  S
C166        H173   1.086       .  S
C166        C167   1.360       .  D
C167       C2800   1.471       .  S
C167        C168   1.529   1_565  S
C168        C172   1.536       .  S
C168        C170   1.525       .  S
C168        H174   1.107   1_545  S
C169        H175   1.080       .  S
C169        C170   1.372       .  D
C170        C202   1.473       .  S
C171        H176   1.086       .  S
C171        C172   1.370       .  D
C172       C2744   1.502       .  S
C177        C178   1.539   1_565  S
C177        C183   1.545       .  S
C177        C181   1.550   1_565  S
C177       C2828   1.560   1_565  S
C178        H185   1.086       .  S
C178        C179   1.360   1_545  D
C179       C2737   1.482   1_565  S
C179        C180   1.538       .  S
C180        C184   1.528       .  S
C180        C182   1.529   1_565  S
C180        H186   1.110       .  S
C181        H187   1.085       .  S
C181        C182   1.378       .  D
C182        C215   1.481       .  S
C183        H188   1.081       .  S
C183        C184   1.365       .  D
C184       C2709   1.490       .  S
C189        C190   1.534       .  S
C189        C195   1.545       .  S
C189        C193   1.555       .  S
C189       C2856   1.563       .  S
C190        H197   1.085       .  S
C190        C191   1.365       .  D
C191       C2716   1.498       .  S
C191        C192   1.541       .  S
C192        C196   1.532       .  S
C192        C194   1.539       .  S
C192        H198   1.111       .  S
C193        H199   1.082       .  S
C193        C194   1.379       .  D
C195        H200   1.086       .  S
C195        C196   1.359       .  D
C196       C2772   1.489       .  S
O201        C204   1.271       .  A
O201       Cd206   2.520       .  S
C202        O211   1.261       .  A
C202        O207   1.268       .  A
O203        C209   1.269       .  A
O203       Cd206   2.426       .  S
C204        O212   1.265       .  A
C204       C2653   1.496       .  S
C205        O210   1.268       .  A
C205        O208   1.262       .  A
C205       C2688   1.490       .  S
Cd206       O213   2.428       .  S
Cd206       O212   2.421       .  S
Cd206       O211   2.462       .  S
Cd206       O207   2.468       .  S
Cd206       O210   2.490       .  S
Cd206       O208   2.401       .  S
C209        O213   1.268       .  A
C209       C2632   1.480       .  S
O214        C217   1.273       .  A
O214       Cd219   2.547       .  S
C215        O224   1.261       .  A
C215        O220   1.272       .  A
O216        C222   1.266       .  A
O216       Cd219   2.477       .  S
C217        O225   1.261       .  A
C217       C2597   1.496       .  S
C218        O223   1.268       .  A
C218        O221   1.268       .  A
C218       C2576   1.474       .  S
Cd219       O226   2.429       .  S
Cd219       O225   2.404       .  S
Cd219       O224   2.479       .  S
Cd219       O220   2.489       .  S
Cd219       O223   2.386       .  S
Cd219       O221   2.430       .  S
C222        O226   1.266       .  A
C222       C2681   1.483       .  S
O227        C230   1.268       .  A
O227       Cd232   2.514       .  S
C228        O237   1.264       .  A
C228        O233   1.266       .  A
C228        C342   1.483       .  S
O229        C235   1.265       .  A
O229       Cd232   2.486       .  S
C230        O238   1.263       .  A
C230       C2660   1.497       .  S
C231        O236   1.266       .  A
C231        O234   1.266       .  A
C231       C2513   1.486       .  S
Cd232       O239   2.450       .  S
Cd232       O238   2.439       .  S
Cd232       O237   2.501       .  S
Cd232       O233   2.471       .  S
Cd232       O236   2.448       .  S
Cd232       O234   2.457       .  S
C235        O239   1.264       .  A
C235       C2548   1.497       .  S
O240        C243   1.268       .  A
O240       Cd245   2.521       .  S
C241        O250   1.265       .  A
C241        O246   1.266       .  A
C241        C306   1.480       .  S
O242        C248   1.265       .  A
O242       Cd245   2.436       .  S
C243        O251   1.263       .  A
C243       C2604   1.498       .  S
C244        O249   1.264       .  A
C244        O247   1.265       .  A
C244       C2541   1.484       .  S
Cd245       O252   2.442       .  S
Cd245       O251   2.436       .  S
Cd245       O250   2.497       .  S
Cd245       O246   2.453       .  S
Cd245       O249   2.481       .  S
Cd245       O247   2.453       .  S
C248        O252   1.264       .  A
C248       C2492   1.485       .  S
C253        C254   1.532   1_565  S
C253        C259   1.535       .  S
C253        C257   1.552       .  S
C253       C2401   1.557       .  S
C254        H261   1.086       .  S
C254        C255   1.370       .  D
C255       C2464   1.501       .  S
C255        C256   1.535   1_545  S
C256        C260   1.535       .  S
C256        C258   1.534       .  S
C256        H262   1.104       .  S
C257        H263   1.085       .  S
C257        C258   1.375       .  D
C259        H264   1.085       .  S
C259        C260   1.355       .  D
C260       C2436   1.478       .  S
C265        C266   1.531       .  S
C265        C271   1.539       .  S
C265        C269   1.548       .  S
C265       C2345   1.562       .  S
C266        H273   1.085       .  S
C266        C267   1.367       .  D
C267       C2429   1.508       .  S
C267        C268   1.546       .  S
C268        C272   1.531       .  S
C268        C270   1.547       .  S
C268        H274   1.108       .  S
C269        H275   1.083       .  S
C269        C270   1.377       .  D
C271        H276   1.086       .  S
C271        C272   1.359       .  D
C272       C2373   1.491       .  S
C277        C278   1.536       .  S
C277        C283   1.545       .  S
C277        C281   1.553       .  S
C277       C2289   1.559       .  S
C278        H285   1.085       .  S
C278        C279   1.366       .  D
C279       C2380   1.501       .  S
C279        C280   1.541       .  S
C280        C284   1.533       .  S
C280        C282   1.538       .  S
C280        H286   1.111       .  S
C281        H287   1.081       .  S
C281        C282   1.374       .  D
C282        C389   1.482       .  S
C283        H288   1.086       .  S
C283        C284   1.358       .  D
C284       C2317   1.489       .  S
C289        C290   1.538       .  S
C289        C295   1.530       .  S
C289        C293   1.559       .  S
C289       C2261   1.564       .  S
C290        H297   1.085   1_545  S
C290        C291   1.368   1_545  D
C291       C2324   1.509       .  S
C291        C292   1.546   1_565  S
C292        C296   1.538       .  S
C292        C294   1.532       .  S
C292        H298   1.108       .  S
C293        H299   1.080       .  S
C293        C294   1.376       .  D
C294        C376   1.487       .  S
C295        H300   1.086       .  S
C295        C296   1.362       .  D
C296       C2457   1.482       .  S
C301        C302   1.527       .  S
C301        C307   1.542   1_565  S
C301        C305   1.551   1_565  S
C301       C2408   1.559   1_565  S
C302        H309   1.087       .  S
C302        C303   1.361       .  D
C303       C2212   1.488       .  S
C303        C304   1.537       .  S
C304        C308   1.536   1_565  S
C304        C306   1.538   1_565  S
C304        H310   1.107       .  S
C305        H311   1.085       .  S
C305        C306   1.376       .  D
C307        H312   1.078       .  S
C307        C308   1.366       .  D
C308       C2233   1.505       .  S
C313        C314   1.531       .  S
C313        C319   1.544       .  S
C313        C317   1.547       .  S
C313       C2352   1.564       .  S
C314        H321   1.086       .  S
C314        C315   1.366       .  D
C315       C2177   1.504       .  S
C315        C316   1.545       .  S
C316        C320   1.529       .  S
C316        C318   1.537       .  S
C316        H322   1.107       .  S
C317        H323   1.085       .  S
C317        C318   1.373       .  D
C319        H324   1.082       .  S
C319        C320   1.367       .  D
C320       C2205   1.497       .  S
C325        C326   1.545       .  S
C325        C331   1.539       .  S
C325        C329   1.539       .  S
C325       C2296   1.551       .  S
C326        H333   1.082       .  S
C326        C327   1.376       .  D
C327       C2149   1.505       .  S
C327        C328   1.541       .  S
C328        C332   1.536       .  S
C328        C330   1.533       .  S
C328        H334   1.103       .  S
C329        H335   1.086       .  S
C329        C330   1.368       .  D
C331        H336   1.086       .  S
C331        C332   1.356       .  D
C332       C2184   1.481       .  S
C337        C338   1.544       .  S
C337        C343   1.546       .  S
C337        C341   1.546       .  S
C337       C2268   1.555       .  S
C338        H345   1.087       .  S
C338        C339   1.356       .  D
C339       C2240   1.483       .  S
C339        C340   1.529       .  S
C340        C344   1.539   1_545  S
C340        C342   1.537       .  S
C340        H346   1.111       .  S
C341        H347   1.086       .  S
C341        C342   1.374       .  D
C343        H348   1.078   1_545  S
C343        C344   1.366   1_545  D
C344       C2156   1.495       .  S
O349        C352   1.262       .  A
O349       Cd354   2.474       .  S
C350        O359   1.263       .  A
C350        O355   1.267       .  A
O351        C357   1.263       .  A
O351       Cd354   2.413       .  S
C352        O360   1.267       .  A
C352       C2093   1.506       .  S
C353        O358   1.266       .  A
C353        O356   1.264       .  A
C353       C2121   1.482   1_545  S
Cd354       O361   2.491       .  S
Cd354       O360   2.526       .  S
Cd354       O359   2.480       .  S
Cd354       O355   2.500       .  S
Cd354       O358   2.443       .  S
Cd354       O356   2.461       .  S
C357        O361   1.269       .  A
C357       C2072   1.480       .  S
O362        C365   1.270       .  A
O362       Cd367   2.539       .  S
C363        O372   1.262       .  A
C363        O368   1.270       .  A
O364        C370   1.266       .  A
O364       Cd367   2.474       .  S
C365        O373   1.262       .  A
C365       C2037   1.497       .  S
C366        O371   1.268       .  A
C366        O369   1.267       .  A
C366       C2016   1.481       .  S
Cd367       O374   2.420       .  S
Cd367       O373   2.414       .  S
Cd367       O372   2.445       .  S
Cd367       O368   2.505       .  S
Cd367       O371   2.445       .  S
Cd367       O369   2.428       .  S
C370        O374   1.265       .  A
C370       C2128   1.498       .  S
O375        C378   1.271       .  A
O375       Cd380   2.523       .  S
C376        O385   1.260       .  A
C376        O381   1.269       .  A
O377        C383   1.262       .  A
O377       Cd380   2.467       .  S
C378        O386   1.264       .  A
C378       C2100   1.517       .  S
C379        O384   1.265       .  A
C379        O382   1.269       .  A
C379       C1960   1.470       .  S
Cd380       O387   2.421       .  S
Cd380       O386   2.465       .  S
Cd380       O385   2.483       .  S
Cd380       O381   2.511       .  S
Cd380       O384   2.387       .  S
Cd380       O382   2.461       .  S
C383        O387   1.263       .  A
C383       C1981   1.467   1_545  S
O388        C391   1.271       .  A
O388       Cd393   2.536       .  S
C389        O398   1.265       .  A
C389        O394   1.268       .  A
O390        C396   1.266       .  A
O390       Cd393   2.418       .  S
C391        O399   1.261       .  A
C391       C2044   1.497       .  S
C392        O397   1.266       .  A
C392        O395   1.263       .  A
C392       C1988   1.482       .  S
Cd393       O400   2.415       .  S
Cd393       O399   2.423       .  S
Cd393       O398   2.477       .  S
Cd393       O394   2.466       .  S
Cd393       O397   2.459       .  S
Cd393       O395   2.380       .  S
C396        O400   1.267       .  A
C396       C1925   1.467       .  S
O401        C404   1.272       .  A
O401       Cd406   2.517       .  S
C402        O411   1.263       .  A
C402        O407   1.267       .  A
C402        C582   1.482       .  S
O403        C409   1.267       .  A
O403       Cd406   2.403       .  S
C404        O412   1.263       .  A
C404       C1869   1.494       .  S
C405        O410   1.266       .  A
C405        O408   1.263       .  A
C405       C1904   1.480       .  S
Cd406       O413   2.451       .  S
Cd406       O412   2.436       .  S
Cd406       O411   2.500       .  S
Cd406       O407   2.473       .  S
Cd406       O410   2.484       .  S
Cd406       O408   2.412       .  S
C409        O413   1.268       .  A
C409       C2569   1.476       .  S
O414        C417   1.269       .  A
O414       Cd419   2.520       .  S
C415        O424   1.262       .  A
C415        O420   1.267       .  A
C415        C570   1.474       .  S
O416        C422   1.267       .  A
O416       Cd419   2.489       .  S
C417        O425   1.264       .  A
C417       C1841   1.495       .  S
C418        O423   1.269       .  A
C418        O421   1.268       .  A
C418       C3360   1.484       .  S
Cd419       O426   2.433       .  S
Cd419       O425   2.437       .  S
Cd419       O424   2.480       .  S
Cd419       O420   2.456       .  S
Cd419       O423   2.440       .  S
Cd419       O421   2.433       .  S
C422        O426   1.263       .  A
C422       C1897   1.490       .  S
O427        C430   1.273       .  A
O427       Cd432   2.535       .  S
C428        O437   1.261       .  A
C428        O433   1.270       .  A
C428        C706   1.482       .  S
O429        C435   1.265       .  A
O429       Cd432   2.457       .  S
C430        O438   1.262       .  A
C430       C1876   1.498       .  S
C431        O436   1.266       .  A
C431        O434   1.269       .  A
C431       C2485   1.468       .  S
Cd432       O439   2.419       .  S
Cd432       O438   2.410       .  S
Cd432       O437   2.454       .  S
Cd432       O433   2.509       .  S
Cd432       O436   2.398       .  S
Cd432       O434   2.451       .  S
C435        O439   1.263       .  A
C435       C1813   1.501       .  S
O440        C443   1.270       .  A
O440       Cd445   2.516       .  S
C441        O450   1.263       .  A
C441        O446   1.266       .  A
C441        C742   1.477       .  S
O442        C448   1.265       .  A
O442       Cd445   2.433       .  S
C443        O451   1.263       .  A
C443       C1848   1.493       .  S
C444        O449   1.266       .  A
C444        O447   1.263       .  A
C444       C1820   1.469       .  S
Cd445       O452   2.450       .  S
Cd445       O451   2.419       .  S
Cd445       O450   2.467       .  S
Cd445       O446   2.484       .  S
Cd445       O449   2.481       .  S
Cd445       O447   2.406       .  S
C448        O452   1.266       .  A
C448       C3276   1.484       .  S
O453        C456   1.266       .  A
O453       Cd458   2.492       .  S
C454        O463   1.268       .  A
C454        O459   1.261       .  A
C454       C1764   1.494       .  S
O455        C461   1.265       .  A
O455       Cd458   2.430       .  S
C456        O464   1.265       .  A
C456        C534   1.483       .  S
C457        O462   1.266       .  A
C457        O460   1.266       .  A
C457       C2009   1.488       .  S
Cd458       O465   2.481       .  S
Cd458       O464   2.476       .  S
Cd458       O463   2.516       .  S
Cd458       O459   2.428       .  S
Cd458       O462   2.455       .  S
Cd458       O460   2.452       .  S
C461        O465   1.265       .  A
C461       C1785   1.481       .  S
O466        C469   1.271       .  A
O466       Cd471   2.529       .  S
C467        O476   1.262       .  A
C467        O472   1.267       .  A
C467        C546   1.480       .  S
O468        C474   1.265       .  A
O468       Cd471   2.467       .  S
C469        O477   1.262       .  A
C469       C1729   1.498       .  S
C470        O475   1.266       .  A
C470        O473   1.269       .  A
C470       C3136   1.480       .  S
Cd471       O478   2.420       .  S
Cd471       O477   2.417       .  S
Cd471       O476   2.467       .  S
Cd471       O472   2.491       .  S
Cd471       O475   2.410       .  S
Cd471       O473   2.451       .  S
C474        O478   1.264       .  A
C474       C1792   1.493       .  S
O479        C482   1.270       .  A
O479       Cd484   2.497       .  S
C480        O489   1.262       .  A
C480        O485   1.268       .  A
C480        C670   1.472       .  S
O481        C487   1.266       .  A
O481       Cd484   2.471       .  S
C482        O490   1.263       .  A
C482       C1757   1.490       .  S
C483        O488   1.268       .  A
C483        O486   1.267       .  A
C483       C1932   1.473       .  S
Cd484       O491   2.412       .  S
Cd484       O490   2.419       .  S
Cd484       O489   2.476       .  S
Cd484       O485   2.440       .  S
Cd484       O488   2.403       .  S
Cd484       O486   2.402       .  S
C487        O491   1.264       .  A
C487       C1701   1.475       .  S
O492        C495   1.271       .  A
O492       Cd497   2.531       .  S
C493        O502   1.261       .  A
C493        O498   1.268       .  A
C493        C658   1.483       .  S
O494        C500   1.269       .  A
O494       Cd497   2.403       .  S
C495        O503   1.262       .  A
C495       C1736   1.494       .  S
C496        O501   1.265       .  A
C496        O499   1.263       .  A
C496       C1708   1.488       .  S
Cd497       O504   2.429       .  S
Cd497       O503   2.434       .  S
Cd497       O502   2.481       .  S
Cd497       O498   2.487       .  S
Cd497       O501   2.474       .  S
Cd497       O499   2.429       .  S
C500        O504   1.270       .  A
C500       C3052   1.475       .  S
C505        C506   1.538       .  S
C505        C511   1.532       .  S
C505        C509   1.550       .  S
C505       C1617   1.568       .  S
C506        H513   1.074       .  S
C506        C507   1.378       .  D
C507       C1645   1.527       .  S
C507        C508   1.559       .  S
C508        C512   1.538       .  S
C508        C510   1.530       .  S
C508        H514   1.097       .  S
C509        H515   1.081       .  S
C509        C510   1.370       .  D
C510        C763   1.475       .  S
C511        H516   1.087       .  S
C511        C512   1.360       .  D
C512       C1673   1.504       .  S
C517        C518   1.540       .  S
C517        C523   1.531       .  S
C517        C521   1.552       .  S
C517       C1561   1.560       .  S
C518        H525   1.086       .  S
C518        C519   1.364       .  D
C519       C1680   1.493       .  S
C519        C520   1.547       .  S
C520        C524   1.542       .  S
C520        C522   1.537       .  S
C520        H526   1.108       .  S
C521        H527   1.081       .  S
C521        C522   1.370       .  D
C522        C752   1.484       .  S
C523        H528   1.086       .  S
C523        C524   1.368       .  D
C524       C1589   1.503       .  S
C529        C530   1.540       .  S
C529        C535   1.552       .  S
C529        C533   1.535       .  S
C529       C1505   1.555       .  S
C530        H537   1.080       .  S
C530        C531   1.364       .  D
C531       C1596   1.495       .  S
C531        C532   1.543       .  S
C532        C536   1.544       .  S
C532        C534   1.541       .  S
C532        H538   1.108       .  S
C533        H539   1.086       .  S
C533        C534   1.367       .  D
C535        H540   1.085       .  S
C535        C536   1.375       .  D
C536       C1533   1.520       .  S
C541        C542   1.534       .  S
C541        C547   1.550       .  S
C541        C545   1.551       .  S
C541       C1484   1.566       .  S
C542        H549   1.086       .  S
C542        C543   1.362       .  D
C543       C1540   1.503       .  S
C543        C544   1.545       .  S
C544        C548   1.537       .  S
C544        C546   1.536       .  S
C544        H550   1.111       .  S
C545        H551   1.082       .  S
C545        C546   1.371       .  D
C547        H552   1.086       .  S
C547        C548   1.367       .  D
C548       C1652   1.492       .  S
C553        C554   1.535       .  S
C553        C559   1.538       .  S
C553        C557   1.548       .  S
C553       C1512   1.562       .  S
C554        H561   1.086       .  S
C554        C555   1.367       .  D
C555       C1428   1.500       .  S
C555        C556   1.545       .  S
C556        C560   1.544       .  S
C556        C558   1.541       .  S
C556        H562   1.110       .  S
C557        H563   1.081       .  S
C557        C558   1.372       .  D
C558        C615   1.485       .  S
C559        H564   1.085       .  S
C559        C560   1.364       .  D
C560       C1449   1.502       .  S
C565        C566   1.538       .  S
C565        C571   1.548       .  S
C565        C569   1.544       .  S
C565       C1477   1.552       .  S
C566        H573   1.087       .  S
C566        C567   1.356       .  D
C567       C1393   1.485       .  S
C567        C568   1.539       .  S
C568        C572   1.533       .  S
C568        C570   1.531       .  S
C568        H574   1.107       .  S
C569        H575   1.086       .  S
C569        C570   1.372       .  D
C571        H576   1.095       .  S
C571        C572   1.369       .  D
C572       C1421   1.499       .  S
C577        C578   1.536       .  S
C577        C583   1.534       .  S
C577        C581   1.557       .  S
C577       C1624   1.564       .  S
C578        H585   1.085       .  S
C578        C579   1.358       .  D
C579       C1365   1.481       .  S
C579        C580   1.538       .  S
C580        C584   1.546       .  S
C580        C582   1.534       .  S
C580        H586   1.104       .  S
C581        H587   1.083       .  S
C581        C582   1.375       .  D
C583        H588   1.086       .  S
C583        C584   1.369       .  D
C584       C1400   1.518       .  S
C589        C590   1.549       .  S
C589        C595   1.544       .  S
C589        C593   1.524       .  S
C589       C1568   1.549       .  S
C590        H597   1.086       .  S
C590        C591   1.364       .  D
C591       C1456   1.499       .  S
C591        C592   1.534       .  S
C592        C596   1.546       .  S
C592        C594   1.546       .  S
C592        H598   1.108       .  S
C593        H599   1.086       .  S
C593        C594   1.367       .  D
C594        C602   1.475       .  S
C595        H600   1.078       .  S
C595        C596   1.369       .  D
C596       C1372   1.508       .  S
O601        C604   1.270       .  A
O601       Cd606   2.511       .  S
C602        O611   1.261       .  A
C602        O607   1.267       .  A
O603        C609   1.263       .  A
O603       Cd606   2.480       .  S
C604        O612   1.265       .  A
C604       C1316   1.496       .  S
C605        O610   1.265       .  A
C605        O608   1.267       .  A
C605       C2625   1.480       .  S
Cd606       O613   2.426       .  S
Cd606       O612   2.419       .  S
Cd606       O611   2.427       .  S
Cd606       O607   2.501       .  S
Cd606       O610   2.414       .  S
Cd606       O608   2.464       .  S
C609        O613   1.263       .  A
C609       C1344   1.472       .  S
O614        C617   1.271       .  A
O614       Cd619   2.527       .  S
C615        O624   1.263       .  A
C615        O620   1.270       .  A
O616        C622   1.268       .  A
O616       Cd619   2.428       .  S
C617        O625   1.262       .  A
C617       C1288   1.492       .  S
C618        O623   1.268       .  A
C618        O621   1.265       .  A
C618       C1337   1.489       .  S
Cd619       O626   2.453       .  S
Cd619       O625   2.435       .  S
Cd619       O624   2.446       .  S
Cd619       O620   2.511       .  S
Cd619       O623   2.470       .  S
Cd619       O621   2.404       .  S
C622        O626   1.267       .  A
C622       C3416   1.483       .  S
O627        C630   1.267       .  A
O627       Cd632   2.483       .  S
C628        O637   1.263       .  A
C628        O633   1.270       .  A
C628       C1309   1.488       .  S
O629        C635   1.266       .  A
O629       Cd632   2.472       .  S
C630        O638   1.263       .  A
C630        C718   1.478       .  S
C631        O636   1.267       .  A
C631        O634   1.267       .  A
C631       C2520   1.481       .  S
Cd632       O639   2.408       .  S
Cd632       O638   2.465       .  S
Cd632       O637   2.412       .  S
Cd632       O633   2.508       .  S
Cd632       O636   2.430       .  S
Cd632       O634   2.438       .  S
C635        O639   1.263       .  A
C635       C1260   1.499       .  S
O640        C643   1.270       .  A
O640       Cd645   2.524       .  S
C641        O650   1.264       .  A
C641        O646   1.269       .  A
C641        C730   1.482       .  S
O642        C648   1.265       .  A
O642       Cd645   2.470       .  S
C643        O651   1.261       .  A
C643       C1281   1.491       .  S
C644        O649   1.266       .  A
C644        O647   1.267       .  A
C644       C3304   1.478       .  S
Cd645       O652   2.411       .  S
Cd645       O651   2.415       .  S
Cd645       O650   2.475       .  S
Cd645       O646   2.479       .  S
Cd645       O649   2.400       .  S
Cd645       O647   2.455       .  S
C648        O652   1.266       .  A
C648       C1253   1.474       .  S
C653        C654   1.533       .  S
C653        C659   1.540       .  S
C653        C657   1.558       .  S
C653       C1176   1.562       .  S
C654        H661   1.087       .  S
C654        C655   1.361       .  D
C655       C1204   1.495       .  S
C655        C656   1.538       .  S
C656        C660   1.530       .  S
C656        C658   1.536       .  S
C656        H662   1.111       .  S
C657        H663   1.082       .  S
C657        C658   1.381       .  D
C659        H664   1.086       .  S
C659        C660   1.358       .  D
C660       C1225   1.481       .  S
C665        C666   1.544       .  S
C665        C671   1.528       .  S
C665        C669   1.559       .  S
C665       C1113   1.562       .  S
C666        H673   1.085       .  S
C666        C667   1.375       .  D
C667       C1232   1.518       .  S
C667        C668   1.541       .  S
C668        C672   1.531       .  S
C668        C670   1.523       .  S
C668        H674   1.099       .  S
C669        H675   1.080       .  S
C669        C670   1.374       .  D
C671        H676   1.087       .  S
C671        C672   1.356       .  D
C672       C1148   1.477       .  S
C677        C678   1.540       .  S
C677        C683   1.540       .  S
C677        C681   1.553       .  S
C677       C1057   1.566       .  S
C678        H685   1.084       .  S
C678        C679   1.359       .  D
C679       C1085   1.480   1_655  S
C679        C680   1.534       .  S
C680        C684   1.530       .  S
C680        C682   1.534       .  S
C680        H686   1.108       .  S
C681        H687   1.084       .  S
C681        C682   1.373       .  D
C682        C789   1.480       .  S
C683        H688   1.086       .  S
C683        C684   1.372       .  D
C684       C1197   1.499       .  S
C689        C690   1.527       .  S
C689        C695   1.538       .  S
C689        C693   1.557       .  S
C689       C1036   1.558       .  S
C690        H697   1.085       .  S
C690        C691   1.362       .  D
C691       C1141   1.496       .  S
C691        C692   1.542       .  S
C692        C696   1.529       .  S
C692        C694   1.532       .  S
C692        H698   1.108       .  S
C693        H699   1.083       .  S
C693        C694   1.379       .  D
C694        C776   1.479       .  S
C695        H700   1.086       .  S
C695        C696   1.361       .  D
C696       C1092   1.495       .  S
C701        C702   1.547       .  S
C701        C707   1.540       .  S
C701        C705   1.537       .  S
C701       C1064   1.556       .  S
C702        H709   1.084       .  S
C702        C703   1.369       .  D
C703        C980   1.503       .  S
C703        C704   1.541       .  S
C704        C708   1.538       .  S
C704        C706   1.539       .  S
C704        H710   1.109       .  S
C705        H711   1.086       .  S
C705        C706   1.373       .  D
C707        H712   1.086       .  S
C707        C708   1.362       .  D
C708       C1001   1.488   1_655  S
C713        C714   1.551       .  S
C713        C719   1.538       .  S
C713        C717   1.535       .  S
C713       C1029   1.555       .  S
C714        H721   1.082       .  S
C714        C715   1.374       .  D
C715       C1008   1.501       .  S
C715        C716   1.534       .  S
C716        C720   1.540       .  S
C716        C718   1.537       .  S
C716        H722   1.108       .  S
C717        H723   1.086       .  S
C717        C718   1.368       .  D
C719        H724   1.086       .  S
C719        C720   1.361       .  D
C720        C945   1.490       .  S
C725        C726   1.547       .  S
C725        C731   1.539       .  S
C725        C729   1.540       .  S
C725       C1120   1.554       .  S
C726        H733   1.085       .  S
C726        C727   1.373       .  D
C727        C952   1.516       .  S
C727        C728   1.544       .  S
C728        C732   1.537       .  S
C728        C730   1.535       .  S
C728        H734   1.108       .  S
C729        H735   1.086       .  S
C729        C730   1.371       .  D
C731        H736   1.081       .  S
C731        C732   1.361       .  D
C732        C924   1.485       .  S
C737        C738   1.551       .  S
C737        C743   1.540       .  S
C737        C741   1.534       .  S
C737       C1169   1.556       .  S
C738        H745   1.083       .  S
C738        C739   1.374       .  D
C739        C917   1.499       .  S
C739        C740   1.531       .  S
C740        C744   1.543       .  S
C740        C742   1.538       .  S
C740        H746   1.108       .  S
C741        H747   1.086       .  S
C741        C742   1.368       .  D
C743        H748   1.086       .  S
C743        C744   1.363       .  D
C744        C973   1.498       .  S
O749        C752   1.268       .  A
O749       Cd754   2.497       .  S
C750        O759   1.262       .  A
C750        O755   1.271       .  A
C750        C861   1.499       .  S
O751        C757   1.266       .  A
O751       Cd754   2.442       .  S
C752        O760   1.264       .  A
C753        O758   1.266       .  A
C753        O756   1.263       .  A
C753        C889   1.492       .  S
Cd754       O761   2.467       .  S
Cd754       O760   2.475       .  S
Cd754       O759   2.422       .  S
Cd754       O755   2.540       .  S
Cd754       O758   2.478       .  S
Cd754       O756   2.408       .  S
C757        O761   1.268       .  A
C757       C2065   1.491       .  S
O762        C765   1.261       .  A
O762       Cd767   2.426       .  S
C763        O772   1.262       .  A
C763        O768   1.268       .  A
O764        C770   1.265       .  A
O764       Cd767   2.428       .  S
C765        O773   1.268       .  A
C765        C833   1.486       .  S
C766        O771   1.265       .  A
C766        O769   1.266       .  A
C766        C896   1.477   1_655  S
Cd767       O774   2.453       .  S
Cd767       O773   2.516       .  S
Cd767       O772   2.452       .  S
Cd767       O768   2.472       .  S
Cd767       O771   2.471       .  S
Cd767       O769   2.424       .  S
C770        O774   1.266       .  A
C770       C3192   1.481       .  S
O775        C778   1.271       .  A
O775       Cd780   2.507       .  S
C776        O785   1.261       .  A
C776        O781   1.267       .  A
O777        C783   1.267       .  A
O777       Cd780   2.392       .  S
C778        O786   1.263       .  A
C778        C868   1.493       .  S
C779        O784   1.265       .  A
C779        O782   1.262       .  A
C779        C805   1.481       .  S
Cd780       O787   2.451       .  S
Cd780       O786   2.418       .  S
Cd780       O785   2.490       .  S
Cd780       O781   2.459       .  S
Cd780       O784   2.486       .  S
Cd780       O782   2.443       .  S
C783        O787   1.267       .  A
C783       C1953   1.476       .  S
O788        C791   1.272       .  A
O788       Cd793   2.502       .  S
C789        O798   1.263       .  A
C789        O794   1.267       .  A
O790        C796   1.269       .  A
O790       Cd793   2.505       .  S
C791        O799   1.265       .  A
C791        C840   1.495       .  S
C792        O797   1.269       .  A
C792        O795   1.266       .  A
C792       C3080   1.484       .  S
Cd793       O800   2.403       .  S
Cd793       O799   2.414       .  S
Cd793       O798   2.485       .  S
Cd793       O794   2.480       .  S
Cd793       O797   2.453       .  S
Cd793       O795   2.438       .  S
C796        O800   1.260       .  A
C796        C812   1.492   1_655  S
C801        C802   1.410       .  A
C801        C806   1.409       .  A
C801        C819   1.450       .  S
C802        C807   1.495       .  S
C802        C803   1.412       .  A
C803        C804   1.409       .  A
C803        C808   1.451       .  S
C804        C805   1.411       .  A
C804        C820   1.448       .  S
C805        C806   1.414       .  A
C806        C809   1.451       .  S
C807        C810   1.411       .  A
C807        C814   1.410       .  A
C808        N825   1.157       .  T
C809        N827   1.157       .  T
C810        C811   1.405       .  A
C810        C815   1.454       .  S
C811        C812   1.421       .  A
C811        C817   1.454       .  S
C812        C813   1.417       .  A
C813        C814   1.414       .  A
C813        C816   1.450       .  S
C814        C818   1.450       .  S
C815        N822   1.157       .  T
C816        N823   1.157       .  T
C817        N821   1.158       .  T
C818        N824   1.157       .  T
C819        N828   1.157       .  T
C820        N826   1.156       .  T
C829        C830   1.412       .  A
C829        C834   1.413       .  A
C829        C847   1.450       .  S
C830        C835   1.500       .  S
C830        C831   1.412       .  A
C831        C832   1.410       .  A
C831        C836   1.451       .  S
C832        C833   1.415       .  A
C832        C848   1.452       .  S
C833        C834   1.413       .  A
C834        C837   1.450       .  S
C835        C838   1.410       .  A
C835        C842   1.411       .  A
C836        N853   1.157       .  T
C837        N855   1.157       .  T
C838        C839   1.415       .  A
C838        C843   1.450       .  S
C839        C840   1.418       .  A
C839        C845   1.450       .  S
C840        C841   1.418       .  A
C841        C842   1.409       .  A
C841        C844   1.452       .  S
C842        C846   1.452       .  S
C843        N850   1.157       .  T
C844        N851   1.157       .  T
C845        N849   1.157       .  T
C846        N852   1.157       .  T
C847        N856   1.157       .  T
C848        N854   1.158       .  T
C857        C858   1.411       .  A
C857        C862   1.417       .  A
C857        C875   1.450       .  S
C858        C863   1.501       .  S
C858        C859   1.409       .  A
C859        C860   1.410       .  A
C859        C864   1.452       .  S
C860        C861   1.420       .  A
C860        C876   1.452       .  S
C861        C862   1.418       .  A
C862        C865   1.449       .  S
C863        C866   1.410       .  A
C863        C870   1.412       .  A
C864        N881   1.157       .  T
C865        N883   1.157       .  T
C866        C867   1.410       .  A
C866        C871   1.451       .  S
C867        C868   1.417       .  A
C867        C873   1.452       .  S
C868        C869   1.416       .  A
C869        C870   1.415       .  A
C869        C872   1.450       .  S
C870        C874   1.450       .  S
C871        N878   1.157       .  T
C872        N879   1.157       .  T
C873        N877   1.158       .  T
C874        N880   1.157       .  T
C875        N884   1.157       .  T
C876        N882   1.157       .  T
C885        C886   1.410       .  A
C885        C890   1.405       .  A
C885        C903   1.454       .  S
C886        C891   1.491       .  S
C886        C887   1.408       .  A
C887        C888   1.412       .  A
C887        C892   1.451       .  S
C888        C889   1.420       .  A
C888        C904   1.451       .  S
C889        C890   1.419       .  A
C890        C893   1.453       .  S
C891        C894   1.411       .  A
C891        C898   1.411       .  A
C892        N909   1.157       .  T
C893        N911   1.157       .  T
C894        C895   1.410       .  A
C894        C899   1.451       .  S
C895        C896   1.414       .  A
C895        C901   1.451   1_455  S
C896        C897   1.410       .  A
C897        C898   1.405       .  A
C897        C900   1.450       .  S
C898        C902   1.451       .  S
C899        N906   1.157       .  T
C900        N907   1.157   1_455  T
C901        N905   1.157       .  T
C902        N908   1.157       .  T
C903        N912   1.157       .  T
C904        N910   1.158       .  T
C913        C914   1.405       .  A
C913        C918   1.409   1_455  A
C913        C931   1.453       .  S
C914        C919   1.489       .  S
C914        C915   1.406       .  A
C915        C916   1.408   1_455  A
C915        C920   1.450       .  S
C916        C917   1.416       .  A
C916        C932   1.449       .  S
C917        C918   1.422       .  A
C918        C921   1.447       .  S
C919        C922   1.409       .  A
C919        C926   1.411       .  A
C920        N937   1.157       .  T
C921        N939   1.157       .  T
C922        C923   1.412       .  A
C922        C927   1.449       .  S
C923        C924   1.413       .  A
C923        C929   1.449       .  S
C924        C925   1.416       .  A
C925        C926   1.404       .  A
C925        C928   1.453       .  S
C926        C930   1.453       .  S
C927        N934   1.157       .  T
C928        N935   1.157       .  T
C929        N933   1.157       .  T
C930        N936   1.157       .  T
C931        N940   1.157       .  T
C932        N938   1.157       .  T
C941        C942   1.408       .  A
C941        C946   1.407       .  A
C941        C959   1.451       .  S
C942        C947   1.492       .  S
C942        C943   1.409       .  A
C943        C944   1.410       .  A
C943        C948   1.451       .  S
C944        C945   1.412       .  A
C944        C960   1.446       .  S
C945        C946   1.417       .  A
C946        C949   1.451       .  S
C947        C950   1.403       .  A
C947        C954   1.402       .  A
C948        N965   1.157       .  T
C949        N967   1.157       .  T
C950        C951   1.409       .  A
C950        C955   1.454       .  S
C951        C952   1.426       .  A
C951        C957   1.447       .  S
C952        C953   1.428       .  A
C953        C954   1.414       .  A
C953        C956   1.446       .  S
C954        C958   1.453       .  S
C955        N962   1.157       .  T
C956        N963   1.156       .  T
C957        N961   1.156       .  T
C958        N964   1.157       .  T
C959        N968   1.157       .  T
C960        N966   1.155       .  T
C969        C970   1.409       .  A
C969        C974   1.410       .  A
C969        C987   1.451       .  S
C970        C975   1.497       .  S
C970        C971   1.410       .  A
C971        C972   1.409       .  A
C971        C976   1.450       .  S
C972        C973   1.413       .  A
C972        C988   1.446       .  S
C973        C974   1.421       .  A
C974        C977   1.452       .  S
C975        C978   1.409       .  A
C975        C982   1.410       .  A
C976        N993   1.156       .  T
C977        N995   1.157       .  T
C978        C979   1.407       .  A
C978        C983   1.452       .  S
C979        C980   1.415       .  A
C979        C985   1.449       .  S
C980        C981   1.418       .  A
C981        C982   1.414       .  A
C981        C984   1.445       .  S
C982        C986   1.452       .  S
C983        N990   1.157       .  T
C984        N991   1.156   1_655  T
C985        N989   1.157       .  T
C986        N992   1.157   1_655  T
C987        N996   1.157       .  T
C988        N994   1.156       .  T
C997        C998   1.412       .  A
C997       C1002   1.412       .  A
C997       C1015   1.450       .  S
C998       C1003   1.494       .  S
C998        C999   1.411       .  A
C999       C1000   1.405       .  A
C999       C1004   1.452       .  S
C1000      C1001   1.415       .  A
C1000      C1016   1.452       .  S
C1001      C1002   1.412       .  A
C1002      C1005   1.449   1_455  S
C1003      C1006   1.409       .  A
C1003      C1010   1.409       .  A
C1004      N1021   1.157       .  T
C1005      N1023   1.157       .  T
C1006      C1007   1.409       .  A
C1006      C1011   1.453       .  S
C1007      C1008   1.420       .  A
C1007      C1013   1.447       .  S
C1008      C1009   1.416       .  A
C1009      C1010   1.410       .  A
C1009      C1012   1.450       .  S
C1010      C1014   1.450       .  S
C1011      N1018   1.157       .  T
C1012      N1019   1.157       .  T
C1013      N1017   1.157       .  T
C1014      N1020   1.157       .  T
C1015      N1024   1.157       .  T
C1016      N1022   1.157   1_455  T
C1025      C1026   1.408       .  A
C1025      C1030   1.412       .  A
C1025      C1043   1.451       .  S
C1026      C1031   1.498       .  S
C1026      C1027   1.407       .  A
C1027      C1028   1.414       .  A
C1027      C1032   1.450       .  S
C1028      C1029   1.425       .  A
C1028      C1044   1.451       .  S
C1029      C1030   1.421       .  A
C1030      C1033   1.446       .  S
C1031      C1034   1.408       .  A
C1031      C1038   1.404       .  A
C1032      N1049   1.157       .  T
C1033      N1051   1.157       .  T
C1034      C1035   1.421       .  A
C1034      C1039   1.450       .  S
C1035      C1036   1.427       .  A
C1035      C1041   1.448       .  S
C1036      C1037   1.436       .  A
C1037      C1038   1.404       .  A
C1037      C1040   1.454       .  S
C1038      C1042   1.457       .  S
C1039      N1046   1.157       .  T
C1040      N1047   1.158       .  T
C1041      N1045   1.158       .  T
C1042      N1048   1.157       .  T
C1043      N1052   1.157       .  T
C1044      N1050   1.157       .  T
C1053      C1054   1.404       .  A
C1053      C1058   1.410       .  A
C1053      C1071   1.456       .  S
C1054      C1059   1.504       .  S
C1054      C1055   1.408       .  A
C1055      C1056   1.422       .  A
C1055      C1060   1.450       .  S
C1056      C1057   1.430       .  A
C1056      C1072   1.449       .  S
C1057      C1058   1.434       .  A
C1058      C1061   1.449       .  S
C1059      C1062   1.411       .  A
C1059      C1066   1.409       .  A
C1060      N1077   1.157       .  T
C1061      N1079   1.156       .  T
C1062      C1063   1.416       .  A
C1062      C1067   1.448       .  S
C1063      C1064   1.420       .  A
C1063      C1069   1.450       .  S
C1064      C1065   1.418       .  A
C1065      C1066   1.411       .  A
C1065      C1068   1.446       .  S
C1066      C1070   1.450       .  S
C1067      N1074   1.157       .  T
C1068      N1075   1.156       .  T
C1069      N1073   1.157       .  T
C1070      N1076   1.157       .  T
C1071      N1080   1.157       .  T
C1072      N1078   1.158       .  T
C1081      C1082   1.413       .  A
C1081      C1086   1.409       .  A
C1081      C1099   1.445       .  S
C1082      C1087   1.496       .  S
C1082      C1083   1.411       .  A
C1083      C1084   1.404       .  A
C1083      C1088   1.452       .  S
C1084      C1085   1.413       .  A
C1084      C1100   1.451       .  S
C1085      C1086   1.407       .  A
C1086      C1089   1.449       .  S
C1087      C1090   1.411       .  A
C1087      C1094   1.412       .  A
C1088      N1105   1.157       .  T
C1089      N1107   1.157       .  T
C1090      C1091   1.404       .  A
C1090      C1095   1.452       .  S
C1091      C1092   1.418       .  A
C1091      C1097   1.453       .  S
C1092      C1093   1.415       .  A
C1093      C1094   1.411       .  A
C1093      C1096   1.449       .  S
C1094      C1098   1.451       .  S
C1095      N1102   1.157       .  T
C1096      N1103   1.157       .  T
C1097      N1101   1.157       .  T
C1098      N1104   1.157       .  T
C1099      N1108   1.155       .  T
C1100      N1106   1.157   1_455  T
C1109      C1110   1.404       .  A
C1109      C1114   1.409       .  A
C1109      C1127   1.454       .  S
C1110      C1115   1.501       .  S
C1110      C1111   1.408       .  A
C1111      C1112   1.420       .  A
C1111      C1116   1.450       .  S
C1112      C1113   1.428       .  A
C1112      C1128   1.447       .  S
C1113      C1114   1.432       .  A
C1114      C1117   1.453       .  S
C1115      C1118   1.409       .  A
C1115      C1122   1.410       .  A
C1116      N1133   1.157       .  T
C1117      N1135   1.157       .  T
C1118      C1119   1.412       .  A
C1118      C1123   1.449       .  S
C1119      C1120   1.419       .  A
C1119      C1125   1.448       .  S
C1120      C1121   1.418       .  A
C1121      C1122   1.414       .  A
C1121      C1124   1.447       .  S
C1122      C1126   1.449       .  S
C1123      N1130   1.157       .  T
C1124      N1131   1.157       .  T
C1125      N1129   1.157       .  T
C1126      N1132   1.157       .  T
C1127      N1136   1.157       .  T
C1128      N1134   1.158       .  T
C1137      C1138   1.409       .  A
C1137      C1142   1.403       .  A
C1137      C1155   1.457       .  S
C1138      C1143   1.488       .  S
C1138      C1139   1.406       .  A
C1139      C1140   1.410       .  A
C1139      C1144   1.449       .  S
C1140      C1141   1.417       .  A
C1140      C1156   1.449       .  S
C1141      C1142   1.421       .  A
C1142      C1145   1.449       .  S
C1143      C1146   1.409       .  A
C1143      C1150   1.410       .  A
C1144      N1161   1.157       .  T
C1145      N1163   1.157       .  T
C1146      C1147   1.402       .  A
C1146      C1151   1.453       .  S
C1147      C1148   1.412       .  A
C1147      C1153   1.450       .  S
C1148      C1149   1.411       .  A
C1149      C1150   1.409       .  A
C1149      C1152   1.450       .  S
C1150      C1154   1.450       .  S
C1151      N1158   1.157       .  T
C1152      N1159   1.157       .  T
C1153      N1157   1.157       .  T
C1154      N1160   1.157       .  T
C1155      N1164   1.158       .  T
C1156      N1162   1.157       .  T
C1165      C1166   1.409       .  A
C1165      C1170   1.413       .  A
C1165      C1183   1.449       .  S
C1166      C1171   1.503       .  S
C1166      C1167   1.409       .  A
C1167      C1168   1.414       .  A
C1167      C1172   1.450       .  S
C1168      C1169   1.421       .  A
C1168      C1184   1.446       .  S
C1169      C1170   1.423       .  A
C1170      C1173   1.451       .  S
C1171      C1174   1.404       .  A
C1171      C1178   1.409       .  A
C1172      N1189   1.157       .  T
C1173      N1191   1.157       .  T
C1174      C1175   1.408       .  A
C1174      C1179   1.457       .  S
C1175      C1176   1.437       .  A
C1175      C1181   1.454       .  S
C1176      C1177   1.429       .  A
C1177      C1178   1.422       .  A
C1177      C1180   1.447       .  S
C1178      C1182   1.450       .  S
C1179      N1186   1.157       .  T
C1180      N1187   1.158       .  T
C1181      N1185   1.158       .  T
C1182      N1188   1.157       .  T
C1183      N1192   1.157       .  T
C1184      N1190   1.157       .  T
C1193      C1194   1.406       .  A
C1193      C1198   1.409       .  A
C1193      C1211   1.453       .  S
C1194      C1199   1.488       .  S
C1194      C1195   1.406       .  A
C1195      C1196   1.408       .  A
C1195      C1200   1.449       .  S
C1196      C1197   1.415       .  A
C1196      C1212   1.450       .  S
C1197      C1198   1.421       .  A
C1198      C1201   1.448       .  S
C1199      C1202   1.408       .  A
C1199      C1206   1.406       .  A
C1200      N1217   1.157       .  T
C1201      N1219   1.158   1_655  T
C1202      C1203   1.406       .  A
C1202      C1207   1.454       .  S
C1203      C1204   1.419       .  A
C1203      C1209   1.450       .  S
C1204      C1205   1.417       .  A
C1205      C1206   1.411       .  A
C1205      C1208   1.449       .  S
C1206      C1210   1.450       .  S
C1207      N1214   1.157       .  T
C1208      N1215   1.157       .  T
C1209      N1213   1.157       .  T
C1210      N1216   1.157       .  T
C1211      N1220   1.157       .  T
C1212      N1218   1.157       .  T
C1221      C1222   1.415       .  A
C1221      C1226   1.408   1_455  A
C1221      C1239   1.452       .  S
C1222      C1227   1.498       .  S
C1222      C1223   1.412       .  A
C1223      C1224   1.408   1_455  A
C1223      C1228   1.447       .  S
C1224      C1225   1.411       .  A
C1224      C1240   1.451       .  S
C1225      C1226   1.407       .  A
C1226      C1229   1.449       .  S
C1227      C1230   1.409       .  A
C1227      C1234   1.408       .  A
C1228      N1245   1.156       .  T
C1229      N1247   1.157       .  T
C1230      C1231   1.407       .  A
C1230      C1235   1.451       .  S
C1231      C1232   1.422       .  A
C1231      C1237   1.453       .  S
C1232      C1233   1.427       .  A
C1233      C1234   1.413       .  A
C1233      C1236   1.447       .  S
C1234      C1238   1.453       .  S
C1235      N1242   1.157       .  T
C1236      N1243   1.158       .  T
C1237      N1241   1.158       .  T
C1238      N1244   1.157       .  T
C1239      N1248   1.157       .  T
C1240      N1246   1.157       .  T
C1249      C1250   1.410       .  A
C1249      C1254   1.404       .  A
C1249      C1267   1.451       .  S
C1250      C1255   1.486       .  S
C1250      C1251   1.410       .  A
C1251      C1252   1.409       .  A
C1251      C1256   1.450       .  S
C1252      C1253   1.412       .  A
C1252      C1268   1.450       .  S
C1253      C1254   1.409       .  A
C1254      C1257   1.449       .  S
C1255      C1258   1.407       .  A
C1255      C1262   1.404       .  A
C1256      N1273   1.157       .  T
C1257      N1275   1.156       .  T
C1258      C1259   1.405       .  A
C1258      C1263   1.455       .  S
C1259      C1260   1.424       .  A
C1259      C1265   1.452       .  S
C1260      C1261   1.425       .  A
C1261      C1262   1.412       .  A
C1261      C1264   1.450       .  S
C1262      C1266   1.451       .  S
C1263      N1270   1.157       .  T
C1264      N1271   1.158       .  T
C1265      N1269   1.157       .  T
C1266      N1272   1.157       .  T
C1267      N1276   1.157       .  T
C1268      N1274   1.157       .  T
C1277      C1278   1.414       .  A
C1277      C1282   1.416       .  A
C1277      C1295   1.449       .  S
C1278      C1283   1.502       .  S
C1278      C1279   1.411       .  A
C1279      C1280   1.409       .  A
C1279      C1284   1.452       .  S
C1280      C1281   1.418       .  A
C1280      C1296   1.453       .  S
C1281      C1282   1.414       .  A
C1282      C1285   1.450       .  S
C1283      C1286   1.413       .  A
C1283      C1290   1.410       .  A
C1284      N1301   1.157       .  T
C1285      N1303   1.157       .  T
C1286      C1287   1.416   1_554  A
C1286      C1291   1.450       .  S
C1287      C1288   1.415       .  A
C1287      C1293   1.450       .  S
C1288      C1289   1.416       .  A
C1289      C1290   1.411   1_556  A
C1289      C1292   1.450       .  S
C1290      C1294   1.451       .  S
C1291      N1298   1.157       .  T
C1292      N1299   1.157       .  T
C1293      N1297   1.157       .  T
C1294      N1300   1.157       .  T
C1295      N1304   1.157       .  T
C1296      N1302   1.158       .  T
C1305      C1306   1.413       .  A
C1305      C1310   1.415       .  A
C1305      C1323   1.450       .  S
C1306      C1311   1.501       .  S
C1306      C1307   1.411       .  A
C1307      C1308   1.408       .  A
C1307      C1312   1.452       .  S
C1308      C1309   1.415       .  A
C1308      C1324   1.452       .  S
C1309      C1310   1.414       .  A
C1310      C1313   1.450       .  S
C1311      C1314   1.412   1_554  A
C1311      C1318   1.411       .  A
C1312      N1329   1.157       .  T
C1313      N1331   1.157       .  T
C1314      C1315   1.416       .  A
C1314      C1319   1.451   1_556  S
C1315      C1316   1.419       .  A
C1315      C1321   1.450       .  S
C1316      C1317   1.418       .  A
C1317      C1318   1.409   1_556  A
C1317      C1320   1.452       .  S
C1318      C1322   1.452       .  S
C1319      N1326   1.157       .  T
C1320      N1327   1.157       .  T
C1321      N1325   1.157       .  T
C1322      N1328   1.157       .  T
C1323      N1332   1.157       .  T
C1324      N1330   1.157       .  T
C1333      C1334   1.411       .  A
C1333      C1338   1.403       .  A
C1333      C1351   1.455       .  S
C1334      C1339   1.491       .  S
C1334      C1335   1.408       .  A
C1335      C1336   1.413       .  A
C1335      C1340   1.450       .  S
C1336      C1337   1.420       .  A
C1336      C1352   1.450       .  S
C1337      C1338   1.418       .  A
C1338      C1341   1.453       .  S
C1339      C1342   1.412       .  A
C1339      C1346   1.410       .  A
C1340      N1357   1.157       .  T
C1341      N1359   1.157       .  T
C1342      C1343   1.409       .  A
C1342      C1347   1.449       .  S
C1343      C1344   1.411       .  A
C1343      C1349   1.451       .  S
C1344      C1345   1.410       .  A
C1345      C1346   1.405       .  A
C1345      C1348   1.451       .  S
C1346      C1350   1.451       .  S
C1347      N1354   1.157       .  T
C1348      N1355   1.157       .  T
C1349      N1353   1.157       .  T
C1350      N1356   1.157       .  T
C1351      N1360   1.157       .  T
C1352      N1358   1.157       .  T
C1361      C1362   1.411       .  A
C1361      C1366   1.412   1_455  A
C1361      C1379   1.449       .  S
C1362      C1367   1.495       .  S
C1362      C1363   1.412       .  A
C1363      C1364   1.406       .  A
C1363      C1368   1.452       .  S
C1364      C1365   1.412   1_455  A
C1364      C1380   1.451   1_455  S
C1365      C1366   1.411       .  A
C1366      C1369   1.450       .  S
C1367      C1370   1.408       .  A
C1367      C1374   1.407       .  A
C1368      N1385   1.157       .  T
C1369      N1387   1.157       .  T
C1370      C1371   1.407       .  A
C1370      C1375   1.455       .  S
C1371      C1372   1.428       .  A
C1371      C1377   1.452       .  S
C1372      C1373   1.419       .  A
C1373      C1374   1.412       .  A
C1373      C1376   1.449       .  S
C1374      C1378   1.450       .  S
C1375      N1382   1.157       .  T
C1376      N1383   1.157       .  T
C1377      N1381   1.158       .  T
C1378      N1384   1.157       .  T
C1379      N1388   1.157       .  T
C1380      N1386   1.157       .  T
C1389      C1390   1.414       .  A
C1389      C1394   1.412       .  A
C1389      C1407   1.447       .  S
C1390      C1395   1.501       .  S
C1390      C1391   1.412       .  A
C1391      C1392   1.409       .  A
C1391      C1396   1.451       .  S
C1392      C1393   1.412       .  A
C1392      C1408   1.452       .  S
C1393      C1394   1.410       .  A
C1394      C1397   1.451       .  S
C1395      C1398   1.406       .  A
C1395      C1402   1.410       .  A
C1396      N1413   1.157       .  T
C1397      N1415   1.157       .  T
C1398      C1399   1.409       .  A
C1398      C1403   1.451       .  S
C1399      C1400   1.426       .  A
C1399      C1405   1.452       .  S
C1400      C1401   1.424       .  A
C1401      C1402   1.416       .  A
C1401      C1404   1.448       .  S
C1402      C1406   1.452       .  S
C1403      N1410   1.157       .  T
C1404      N1411   1.158       .  T
C1405      N1409   1.157       .  T
C1406      N1412   1.157       .  T
C1407      N1416   1.156       .  T
C1408      N1414   1.157       .  T
C1417      C1418   1.407   1_655  A
C1417      C1422   1.408       .  A
C1417      C1435   1.450   1_655  S
C1418      C1423   1.491       .  S
C1418      C1419   1.408       .  A
C1419      C1420   1.410   1_455  A
C1419      C1424   1.451       .  S
C1420      C1421   1.418       .  A
C1420      C1436   1.447       .  S
C1421      C1422   1.417       .  A
C1422      C1425   1.450       .  S
C1423      C1426   1.406       .  A
C1423      C1430   1.406       .  A
C1424      N1441   1.157       .  T
C1425      N1443   1.157       .  T
C1426      C1427   1.414       .  A
C1426      C1431   1.450       .  S
C1427      C1428   1.418       .  A
C1427      C1433   1.448       .  S
C1428      C1429   1.419       .  A
C1429      C1430   1.406       .  A
C1429      C1432   1.446       .  S
C1430      C1434   1.455       .  S
C1431      N1438   1.157       .  T
C1432      N1439   1.155       .  T
C1433      N1437   1.157       .  T
C1434      N1440   1.157       .  T
C1435      N1444   1.157       .  T
C1436      N1442   1.157       .  T
C1445      C1446   1.411       .  A
C1445      C1450   1.408       .  A
C1445      C1463   1.452       .  S
C1446      C1451   1.501       .  S
C1446      C1447   1.411       .  A
C1447      C1448   1.415       .  A
C1447      C1452   1.451       .  S
C1448      C1449   1.417       .  A
C1448      C1464   1.447       .  S
C1449      C1450   1.418       .  A
C1450      C1453   1.452       .  S
C1451      C1454   1.409       .  A
C1451      C1458   1.411       .  A
C1452      N1469   1.157       .  T
C1453      N1471   1.157       .  T
C1454      C1455   1.410       .  A
C1454      C1459   1.451       .  S
C1455      C1456   1.416       .  A
C1455      C1461   1.446       .  S
C1456      C1457   1.417       .  A
C1457      C1458   1.413       .  A
C1457      C1460   1.450       .  S
C1458      C1462   1.450       .  S
C1459      N1466   1.156       .  T
C1460      N1467   1.157       .  T
C1461      N1465   1.156       .  T
C1462      N1468   1.157       .  T
C1463      N1472   1.157       .  T
C1464      N1470   1.157       .  T
C1473      C1474   1.413       .  A
C1473      C1478   1.411       .  A
C1473      C1491   1.449       .  S
C1474      C1479   1.507       .  S
C1474      C1475   1.412       .  A
C1475      C1476   1.415       .  A
C1475      C1480   1.449       .  S
C1476      C1477   1.421       .  A
C1476      C1492   1.450       .  S
C1477      C1478   1.416       .  A
C1478      C1481   1.448       .  S
C1479      C1482   1.407       .  A
C1479      C1486   1.408       .  A
C1480      N1497   1.157       .  T
C1481      N1499   1.157       .  T
C1482      C1483   1.412       .  A
C1482      C1487   1.456       .  S
C1483      C1484   1.432       .  A
C1483      C1489   1.450       .  S
C1484      C1485   1.435       .  A
C1485      C1486   1.421       .  A
C1485      C1488   1.449       .  S
C1486      C1490   1.452       .  S
C1487      N1494   1.157       .  T
C1488      N1495   1.158       .  T
C1489      N1493   1.157       .  T
C1490      N1496   1.157       .  T
C1491      N1500   1.157       .  T
C1492      N1498   1.157       .  T
C1501      C1502   1.407       .  A
C1501      C1506   1.412       .  A
C1501      C1519   1.448       .  S
C1502      C1507   1.499       .  S
C1502      C1503   1.408       .  A
C1503      C1504   1.413       .  A
C1503      C1508   1.449       .  S
C1504      C1505   1.422       .  A
C1504      C1520   1.448       .  S
C1505      C1506   1.419       .  A
C1506      C1509   1.447       .  S
C1507      C1510   1.404       .  A
C1507      C1514   1.406       .  A
C1508      N1525   1.157       .  T
C1509      N1527   1.157       .  T
C1510      C1511   1.407       .  A
C1510      C1515   1.454       .  S
C1511      C1512   1.432       .  A
C1511      C1517   1.451       .  S
C1512      C1513   1.431       .  A
C1513      C1514   1.421       .  A
C1513      C1516   1.448       .  S
C1514      C1518   1.450       .  S
C1515      N1522   1.156       .  T
C1516      N1523   1.158       .  T
C1517      N1521   1.157       .  T
C1518      N1524   1.157       .  T
C1519      N1528   1.157       .  T
C1520      N1526   1.158       .  T
C1529      C1530   1.402       .  A
C1529      C1534   1.414       .  A
C1529      C1547   1.454       .  S
C1530      C1535   1.498       .  S
C1530      C1531   1.406       .  A
C1531      C1532   1.414       .  A
C1531      C1536   1.452       .  S
C1532      C1533   1.426       .  A
C1532      C1548   1.448       .  S
C1533      C1534   1.427       .  A
C1534      C1537   1.443       .  S
C1535      C1538   1.408       .  A
C1535      C1542   1.408       .  A
C1536      N1553   1.157       .  T
C1537      N1555   1.156       .  T
C1538      C1539   1.411       .  A
C1538      C1543   1.452       .  S
C1539      C1540   1.419   1_455  A
C1539      C1545   1.448   1_455  S
C1540      C1541   1.417       .  A
C1541      C1542   1.414   1_655  A
C1541      C1544   1.444       .  S
C1542      C1546   1.451       .  S
C1543      N1550   1.157       .  T
C1544      N1551   1.155       .  T
C1545      N1549   1.157       .  T
C1546      N1552   1.157       .  T
C1547      N1556   1.157       .  T
C1548      N1554   1.156       .  T
C1557      C1558   1.405       .  A
C1557      C1562   1.419       .  A
C1557      C1575   1.450       .  S
C1558      C1563   1.496       .  S
C1558      C1559   1.404       .  A
C1559      C1560   1.407       .  A
C1559      C1564   1.456       .  S
C1560      C1561   1.429       .  A
C1560      C1576   1.448       .  S
C1561      C1562   1.430       .  A
C1562      C1565   1.448       .  S
C1563      C1566   1.410       .  A
C1563      C1570   1.407       .  A
C1564      N1581   1.157       .  T
C1565      N1583   1.158       .  T
C1566      C1567   1.412       .  A
C1566      C1571   1.450       .  S
C1567      C1568   1.421       .  A
C1567      C1573   1.451       .  S
C1568      C1569   1.418       .  A
C1569      C1570   1.409       .  A
C1569      C1572   1.448       .  S
C1570      C1574   1.448       .  S
C1571      N1578   1.157       .  T
C1572      N1579   1.157       .  T
C1573      N1577   1.157       .  T
C1574      N1580   1.157       .  T
C1575      N1584   1.157       .  T
C1576      N1582   1.156       .  T
C1585      C1586   1.407       .  A
C1585      C1590   1.408       .  A
C1585      C1603   1.451       .  S
C1586      C1591   1.494       .  S
C1586      C1587   1.409       .  A
C1587      C1588   1.412       .  A
C1587      C1592   1.451       .  S
C1588      C1589   1.418       .  A
C1588      C1604   1.448       .  S
C1589      C1590   1.420       .  A
C1590      C1593   1.452       .  S
C1591      C1594   1.410       .  A
C1591      C1598   1.408       .  A
C1592      N1609   1.157       .  T
C1593      N1611   1.157       .  T
C1594      C1595   1.414       .  A
C1594      C1599   1.449       .  S
C1595      C1596   1.414       .  A
C1595      C1601   1.449       .  S
C1596      C1597   1.420       .  A
C1597      C1598   1.406       .  A
C1597      C1600   1.450       .  S
C1598      C1602   1.453       .  S
C1599      N1606   1.157       .  T
C1600      N1607   1.156       .  T
C1601      N1605   1.157       .  T
C1602      N1608   1.157       .  T
C1603      N1612   1.157       .  T
C1604      N1610   1.158       .  T
C1613      C1614   1.404       .  A
C1613      C1618   1.421       .  A
C1613      C1631   1.452       .  S
C1614      C1619   1.505       .  S
C1614      C1615   1.403       .  A
C1615      C1616   1.410       .  A
C1615      C1620   1.455       .  S
C1616      C1617   1.436       .  A
C1616      C1632   1.452       .  S
C1617      C1618   1.437       .  A
C1618      C1621   1.448       .  S
C1619      C1622   1.404       .  A
C1619      C1626   1.406       .  A
C1620      N1637   1.157       .  T
C1621      N1639   1.158       .  T
C1622      C1623   1.410       .  A
C1622      C1627   1.456       .  S
C1623      C1624   1.436       .  A
C1623      C1629   1.453       .  S
C1624      C1625   1.433       .  A
C1625      C1626   1.421       .  A
C1625      C1628   1.449       .  S
C1626      C1630   1.451       .  S
C1627      N1634   1.157       .  T
C1628      N1635   1.158       .  T
C1629      N1633   1.158       .  T
C1630      N1636   1.157       .  T
C1631      N1640   1.157       .  T
C1632      N1638   1.157       .  T
C1641      C1642   1.405       .  A
C1641      C1646   1.414       .  A
C1641      C1659   1.449       .  S
C1642      C1647   1.490       .  S
C1642      C1643   1.405       .  A
C1643      C1644   1.407       .  A
C1643      C1648   1.450       .  S
C1644      C1645   1.422       .  A
C1644      C1660   1.449       .  S
C1645      C1646   1.419       .  A
C1646      C1649   1.446       .  S
C1647      C1650   1.406       .  A
C1647      C1654   1.410       .  A
C1648      N1665   1.157       .  T
C1649      N1667   1.158       .  T
C1650      C1651   1.412       .  A
C1650      C1655   1.450       .  S
C1651      C1652   1.418       .  A
C1651      C1657   1.448       .  S
C1652      C1653   1.412       .  A
C1653      C1654   1.408       .  A
C1653      C1656   1.446       .  S
C1654      C1658   1.453       .  S
C1655      N1662   1.157       .  T
C1656      N1663   1.156       .  T
C1657      N1661   1.157       .  T
C1658      N1664   1.157       .  T
C1659      N1668   1.157       .  T
C1660      N1666   1.158       .  T
C1669      C1670   1.412       .  A
C1669      C1674   1.412   1_455  A
C1669      C1687   1.451       .  S
C1670      C1675   1.504       .  S
C1670      C1671   1.410       .  A
C1671      C1672   1.412   1_455  A
C1671      C1676   1.452       .  S
C1672      C1673   1.414       .  A
C1672      C1688   1.442       .  S
C1673      C1674   1.420       .  A
C1674      C1677   1.451       .  S
C1675      C1678   1.413       .  A
C1675      C1682   1.413       .  A
C1676      N1693   1.157       .  T
C1677      N1695   1.157       .  T
C1678      C1679   1.414       .  A
C1678      C1683   1.449       .  S
C1679      C1680   1.412       .  A
C1679      C1685   1.447       .  S
C1680      C1681   1.413       .  A
C1681      C1682   1.409       .  A
C1681      C1684   1.449       .  S
C1682      C1686   1.452       .  S
C1683      N1690   1.157       .  T
C1684      N1691   1.157       .  T
C1685      N1689   1.156       .  T
C1686      N1692   1.157       .  T
C1687      N1696   1.157       .  T
C1688      N1694   1.155       .  T
C1697      C1698   1.411       .  A
C1697      C1702   1.408       .  A
C1697      C1715   1.450       .  S
C1698      C1703   1.490       .  S
C1698      C1699   1.409       .  A
C1699      C1700   1.406       .  A
C1699      C1704   1.450       .  S
C1700      C1701   1.413       .  A
C1700      C1716   1.452       .  S
C1701      C1702   1.411       .  A
C1702      C1705   1.450       .  S
C1703      C1706   1.411       .  A
C1703      C1710   1.407   1_455  A
C1704      N1721   1.157       .  T
C1705      N1723   1.157       .  T
C1706      C1707   1.405   1_455  A
C1706      C1711   1.453       .  S
C1707      C1708   1.417       .  A
C1707      C1713   1.453       .  S
C1708      C1709   1.419       .  A
C1709      C1710   1.412       .  A
C1709      C1712   1.451       .  S
C1710      C1714   1.450   1_655  S
C1711      N1718   1.157       .  T
C1712      N1719   1.157       .  T
C1713      N1717   1.158       .  T
C1714      N1720   1.157       .  T
C1715      N1724   1.157       .  T
C1716      N1722   1.158       .  T
C1725      C1726   1.413       .  A
C1725      C1730   1.418       .  A
C1725      C1743   1.449       .  S
C1726      C1731   1.504       .  S
C1726      C1727   1.411       .  A
C1727      C1728   1.409       .  A
C1727      C1732   1.453       .  S
C1728      C1729   1.419       .  A
C1728      C1744   1.453       .  S
C1729      C1730   1.417       .  A
C1730      C1733   1.450       .  S
C1731      C1734   1.411       .  A
C1731      C1738   1.413       .  A
C1732      N1749   1.157       .  T
C1733      N1751   1.157       .  T
C1734      C1735   1.413       .  A
C1734      C1739   1.451       .  S
C1735      C1736   1.416       .  A
C1735      C1741   1.451       .  S
C1736      C1737   1.415       .  A
C1737      C1738   1.415       .  A
C1737      C1740   1.450       .  S
C1738      C1742   1.450       .  S
C1739      N1746   1.157       .  T
C1740      N1747   1.157       .  T
C1741      N1745   1.157       .  T
C1742      N1748   1.157       .  T
C1743      N1752   1.157       .  T
C1744      N1750   1.157       .  T
C1753      C1754   1.411       .  A
C1753      C1758   1.409       .  A
C1753      C1771   1.452       .  S
C1754      C1759   1.498       .  S
C1754      C1755   1.410       .  A
C1755      C1756   1.413       .  A
C1755      C1760   1.450       .  S
C1756      C1757   1.416       .  A
C1756      C1772   1.450       .  S
C1757      C1758   1.416       .  A
C1758      C1761   1.452       .  S
C1759      C1762   1.410       .  A
C1759      C1766   1.410       .  A
C1760      N1777   1.157       .  T
C1761      N1779   1.157       .  T
C1762      C1763   1.410       .  A
C1762      C1767   1.452       .  S
C1763      C1764   1.419       .  A
C1763      C1769   1.453       .  S
C1764      C1765   1.418       .  A
C1765      C1766   1.414       .  A
C1765      C1768   1.450       .  S
C1766      C1770   1.450       .  S
C1767      N1774   1.157       .  T
C1768      N1775   1.157       .  T
C1769      N1773   1.158       .  T
C1770      N1776   1.157       .  T
C1771      N1780   1.157       .  T
C1772      N1778   1.157       .  T
C1781      C1782   1.410       .  A
C1781      C1786   1.405       .  A
C1781      C1799   1.451       .  S
C1782      C1787   1.492       .  S
C1782      C1783   1.411       .  A
C1783      C1784   1.411       .  A
C1783      C1788   1.451       .  S
C1784      C1785   1.415       .  A
C1784      C1800   1.450       .  S
C1785      C1786   1.411       .  A
C1786      C1789   1.450       .  S
C1787      C1790   1.408       .  A
C1787      C1794   1.411       .  A
C1788      N1805   1.157       .  T
C1789      N1807   1.156       .  T
C1790      C1791   1.412   1_455  A
C1790      C1795   1.451       .  S
C1791      C1792   1.422       .  A
C1791      C1797   1.451       .  S
C1792      C1793   1.419       .  A
C1793      C1794   1.406   1_655  A
C1793      C1796   1.453       .  S
C1794      C1798   1.454       .  S
C1795      N1802   1.157       .  T
C1796      N1803   1.158       .  T
C1797      N1801   1.158       .  T
C1798      N1804   1.157       .  T
C1799      N1808   1.157       .  T
C1800      N1806   1.157       .  T
C1809      C1810   1.406       .  A
C1809      C1814   1.406       .  A
C1809      C1827   1.454       .  S
C1810      C1815   1.487       .  S
C1810      C1811   1.403       .  A
C1811      C1812   1.411       .  A
C1811      C1816   1.451       .  S
C1812      C1813   1.426       .  A
C1812      C1828   1.451       .  S
C1813      C1814   1.425       .  A
C1814      C1817   1.453       .  S
C1815      C1818   1.408       .  A
C1815      C1822   1.411       .  A
C1816      N1833   1.157       .  T
C1817      N1835   1.158       .  T
C1818      C1819   1.407       .  A
C1818      C1823   1.450       .  S
C1819      C1820   1.410       .  A
C1819      C1825   1.450       .  S
C1820      C1821   1.409       .  A
C1821      C1822   1.406       .  A
C1821      C1824   1.451       .  S
C1822      C1826   1.450       .  S
C1823      N1830   1.157       .  T
C1824      N1831   1.157       .  T
C1825      N1829   1.157       .  T
C1826      N1832   1.157       .  T
C1827      N1836   1.157       .  T
C1828      N1834   1.158       .  T
C1837      C1838   1.410       .  A
C1837      C1842   1.410   1_554  A
C1837      C1855   1.451       .  S
C1838      C1843   1.500       .  S
C1838      C1839   1.410       .  A
C1839      C1840   1.416   1_554  A
C1839      C1844   1.450       .  S
C1840      C1841   1.417       .  A
C1840      C1856   1.449       .  S
C1841      C1842   1.417       .  A
C1842      C1845   1.452       .  S
C1843      C1846   1.410       .  A
C1843      C1850   1.411       .  A
C1844      N1861   1.157       .  T
C1845      N1863   1.157       .  T
C1846      C1847   1.408       .  A
C1846      C1851   1.452       .  S
C1847      C1848   1.415       .  A
C1847      C1853   1.452       .  S
C1848      C1849   1.417       .  A
C1849      C1850   1.416       .  A
C1849      C1852   1.450       .  S
C1850      C1854   1.449       .  S
C1851      N1858   1.157       .  T
C1852      N1859   1.157       .  T
C1853      N1857   1.157       .  T
C1854      N1860   1.157       .  T
C1855      N1864   1.157       .  T
C1856      N1862   1.157       .  T
C1865      C1866   1.410       .  A
C1865      C1870   1.412   1_554  A
C1865      C1883   1.451       .  S
C1866      C1871   1.502       .  S
C1866      C1867   1.411   1_554  A
C1867      C1868   1.416       .  A
C1867      C1872   1.449   1_556  S
C1868      C1869   1.416       .  A
C1868      C1884   1.450       .  S
C1869      C1870   1.418       .  A
C1870      C1873   1.451       .  S
C1871      C1874   1.411       .  A
C1871      C1878   1.409       .  A
C1872      N1889   1.157       .  T
C1873      N1891   1.157       .  T
C1874      C1875   1.418       .  A
C1874      C1879   1.449       .  S
C1875      C1876   1.417       .  A
C1875      C1881   1.449       .  S
C1876      C1877   1.421       .  A
C1877      C1878   1.410       .  A
C1877      C1880   1.453       .  S
C1878      C1882   1.453       .  S
C1879      N1886   1.157       .  T
C1880      N1887   1.158       .  T
C1881      N1885   1.157       .  T
C1882      N1888   1.157       .  T
C1883      N1892   1.157       .  T
C1884      N1890   1.157       .  T
C1893      C1894   1.410       .  A
C1893      C1898   1.406       .  A
C1893      C1911   1.454       .  S
C1894      C1899   1.490       .  S
C1894      C1895   1.408       .  A
C1895      C1896   1.413       .  A
C1895      C1900   1.450       .  S
C1896      C1897   1.418       .  A
C1896      C1912   1.450       .  S
C1897      C1898   1.418       .  A
C1898      C1901   1.452       .  S
C1899      C1902   1.409       .  A
C1899      C1906   1.410       .  A
C1900      N1917   1.157       .  T
C1901      N1919   1.158       .  T
C1902      C1903   1.406       .  A
C1902      C1907   1.451       .  S
C1903      C1904   1.414       .  A
C1903      C1909   1.453       .  S
C1904      C1905   1.413       .  A
C1905      C1906   1.410       .  A
C1905      C1908   1.450       .  S
C1906      C1910   1.450       .  S
C1907      N1914   1.157       .  T
C1908      N1915   1.157       .  T
C1909      N1913   1.158       .  T
C1910      N1916   1.157       .  T
C1911      N1920   1.157       .  T
C1912      N1918   1.157       .  T
C1921      C1922   1.408       .  A
C1921      C1926   1.405       .  A
C1921      C1939   1.450       .  S
C1922      C1927   1.478       .  S
C1922      C1923   1.408       .  A
C1923      C1924   1.403       .  A
C1923      C1928   1.452       .  S
C1924      C1925   1.412       .  A
C1924      C1940   1.452       .  S
C1925      C1926   1.410       .  A
C1926      C1929   1.451       .  S
C1927      C1930   1.407       .  A
C1927      C1934   1.406       .  A
C1928      N1945   1.157       .  T
C1929      N1947   1.157       .  T
C1930      C1931   1.404       .  A
C1930      C1935   1.452       .  S
C1931      C1932   1.415       .  A
C1931      C1937   1.452       .  S
C1932      C1933   1.415       .  A
C1933      C1934   1.404       .  A
C1933      C1936   1.452       .  S
C1934      C1938   1.451       .  S
C1935      N1942   1.157       .  T
C1936      N1943   1.157       .  T
C1937      N1941   1.157       .  T
C1938      N1944   1.157       .  T
C1939      N1948   1.157       .  T
C1940      N1946   1.157       .  T
C1949      C1950   1.409       .  A
C1949      C1954   1.401       .  A
C1949      C1967   1.453       .  S
C1950      C1955   1.484       .  S
C1950      C1951   1.408       .  A
C1951      C1952   1.410       .  A
C1951      C1956   1.450       .  S
C1952      C1953   1.415       .  A
C1952      C1968   1.450       .  S
C1953      C1954   1.413       .  A
C1954      C1957   1.453       .  S
C1955      C1958   1.408       .  A
C1955      C1962   1.411       .  A
C1956      N1973   1.157       .  T
C1957      N1975   1.157       .  T
C1958      C1959   1.405       .  A
C1958      C1963   1.451       .  S
C1959      C1960   1.412       .  A
C1959      C1965   1.452       .  S
C1960      C1961   1.410       .  A
C1961      C1962   1.407       .  A
C1961      C1964   1.451       .  S
C1962      C1966   1.451       .  S
C1963      N1970   1.157       .  T
C1964      N1971   1.157       .  T
C1965      N1969   1.157       .  T
C1966      N1972   1.157       .  T
C1967      N1976   1.157       .  T
C1968      N1974   1.157       .  T
C1977      C1978   1.412       .  A
C1977      C1982   1.406       .  A
C1977      C1995   1.451       .  S
C1978      C1983   1.486       .  S
C1978      C1979   1.411       .  A
C1979      C1980   1.405       .  A
C1979      C1984   1.451       .  S
C1980      C1981   1.408       .  A
C1980      C1996   1.450       .  S
C1981      C1982   1.409       .  A
C1982      C1985   1.451       .  S
C1983      C1986   1.410       .  A
C1983      C1990   1.408       .  A
C1984      N2001   1.157       .  T
C1985      N2003   1.157       .  T
C1986      C1987   1.401       .  A
C1986      C1991   1.455       .  S
C1987      C1988   1.418       .  A
C1987      C1993   1.454       .  S
C1988      C1989   1.418       .  A
C1989      C1990   1.410       .  A
C1989      C1992   1.451       .  S
C1990      C1994   1.450       .  S
C1991      N1998   1.157       .  T
C1992      N1999   1.157       .  T
C1993      N1997   1.158       .  T
C1994      N2000   1.157       .  T
C1995      N2004   1.157       .  T
C1996      N2002   1.157       .  T
C2005      C2006   1.409       .  A
C2005      C2010   1.411       .  A
C2005      C2023   1.451       .  S
C2006      C2011   1.492       .  S
C2006      C2007   1.409       .  A
C2007      C2008   1.408       .  A
C2007      C2012   1.452       .  S
C2008      C2009   1.417       .  A
C2008      C2024   1.452       .  S
C2009      C2010   1.417       .  A
C2010      C2013   1.451       .  S
C2011      C2014   1.409       .  A
C2011      C2018   1.410       .  A
C2012      N2029   1.157       .  T
C2013      N2031   1.157       .  T
C2014      C2015   1.409       .  A
C2014      C2019   1.450       .  S
C2015      C2016   1.416       .  A
C2015      C2021   1.452       .  S
C2016      C2017   1.414       .  A
C2017      C2018   1.408       .  A
C2017      C2020   1.451       .  S
C2018      C2022   1.451       .  S
C2019      N2026   1.157       .  T
C2020      N2027   1.157       .  T
C2021      N2025   1.158       .  T
C2022      N2028   1.157       .  T
C2023      N2032   1.157       .  T
C2024      N2030   1.157       .  T
C2033      C2034   1.412       .  A
C2033      C2038   1.418       .  A
C2033      C2051   1.449       .  S
C2034      C2039   1.502       .  S
C2034      C2035   1.409       .  A
C2035      C2036   1.408       .  A
C2035      C2040   1.452       .  S
C2036      C2037   1.419       .  A
C2036      C2052   1.452       .  S
C2037      C2038   1.417       .  A
C2038      C2041   1.449       .  S
C2039      C2042   1.411       .  A
C2039      C2046   1.410       .  A
C2040      N2057   1.157       .  T
C2041      N2059   1.157       .  T
C2042      C2043   1.417       .  A
C2042      C2047   1.449       .  S
C2043      C2044   1.417       .  A
C2043      C2049   1.449       .  S
C2044      C2045   1.419       .  A
C2045      C2046   1.410       .  A
C2045      C2048   1.452       .  S
C2046      C2050   1.452       .  S
C2047      N2054   1.157       .  T
C2048      N2055   1.157       .  T
C2049      N2053   1.157       .  T
C2050      N2056   1.157       .  T
C2051      N2060   1.157       .  T
C2052      N2058   1.157       .  T
C2061      C2062   1.409       .  A
C2061      C2066   1.410       .  A
C2061      C2079   1.452       .  S
C2062      C2067   1.494       .  S
C2062      C2063   1.409       .  A
C2063      C2064   1.411       .  A
C2063      C2068   1.451       .  S
C2064      C2065   1.418       .  A
C2064      C2080   1.451       .  S
C2065      C2066   1.418       .  A
C2066      C2069   1.451       .  S
C2067      C2070   1.410       .  A
C2067      C2074   1.412       .  A
C2068      N2085   1.157       .  T
C2069      N2087   1.157       .  T
C2070      C2071   1.407       .  A
C2070      C2075   1.451       .  S
C2071      C2072   1.413       .  A
C2071      C2077   1.452       .  S
C2072      C2073   1.412       .  A
C2073      C2074   1.412       .  A
C2073      C2076   1.450       .  S
C2074      C2078   1.450       .  S
C2075      N2082   1.157       .  T
C2076      N2083   1.157       .  T
C2077      N2081   1.157       .  T
C2078      N2084   1.157       .  T
C2079      N2088   1.157       .  T
C2080      N2086   1.157       .  T
C2089      C2090   1.410       .  A
C2089      C2094   1.415       .  A
C2089      C2107   1.450   1_545  S
C2090      C2095   1.507       .  S
C2090      C2091   1.411       .  A
C2091      C2092   1.416       .  A
C2091      C2096   1.450       .  S
C2092      C2093   1.420       .  A
C2092      C2108   1.450       .  S
C2093      C2094   1.420       .  A
C2094      C2097   1.451       .  S
C2095      C2098   1.409       .  A
C2095      C2102   1.409       .  A
C2096      N2113   1.157       .  T
C2097      N2115   1.157   1_545  T
C2098      C2099   1.415       .  A
C2098      C2103   1.453       .  S
C2099      C2100   1.427       .  A
C2099      C2105   1.451       .  S
C2100      C2101   1.425       .  A
C2101      C2102   1.420       .  A
C2101      C2104   1.450       .  S
C2102      C2106   1.450       .  S
C2103      N2110   1.157       .  T
C2104      N2111   1.157       .  T
C2105      N2109   1.158       .  T
C2106      N2112   1.157       .  T
C2107      N2116   1.157       .  T
C2108      N2114   1.157       .  T
C2117      C2118   1.410       .  A
C2117      C2122   1.409       .  A
C2117      C2135   1.450       .  S
C2118      C2123   1.492       .  S
C2118      C2119   1.410       .  A
C2119      C2120   1.407       .  A
C2119      C2124   1.451       .  S
C2120      C2121   1.412       .  A
C2120      C2136   1.449       .  S
C2121      C2122   1.415       .  A
C2122      C2125   1.451       .  S
C2123      C2126   1.410       .  A
C2123      C2130   1.407       .  A
C2124      N2141   1.157       .  T
C2125      N2143   1.157   1_565  T
C2126      C2127   1.405       .  A
C2126      C2131   1.454       .  S
C2127      C2128   1.420       .  A
C2127      C2133   1.453       .  S
C2128      C2129   1.423       .  A
C2129      C2130   1.413       .  A
C2129      C2132   1.450       .  S
C2130      C2134   1.451       .  S
C2131      N2138   1.157       .  T
C2132      N2139   1.158       .  T
C2133      N2137   1.157       .  T
C2134      N2140   1.157       .  T
C2135      N2144   1.157       .  T
C2136      N2142   1.157       .  T
C2145      C2146   1.407       .  A
C2145      C2150   1.408       .  A
C2145      C2163   1.452       .  S
C2146      C2151   1.488       .  S
C2146      C2147   1.407       .  A
C2147      C2148   1.408       .  A
C2147      C2152   1.450       .  S
C2148      C2149   1.416       .  A
C2148      C2164   1.450       .  S
C2149      C2150   1.419       .  A
C2150      C2153   1.447       .  S
C2151      C2154   1.406       .  A
C2151      C2158   1.408       .  A
C2152      N2169   1.157       .  T
C2153      N2171   1.158       .  T
C2154      C2155   1.408       .  A
C2154      C2159   1.451       .  S
C2155      C2156   1.416       .  A
C2155      C2161   1.449       .  S
C2156      C2157   1.420       .  A
C2157      C2158   1.409       .  A
C2157      C2160   1.451       .  S
C2158      C2162   1.453       .  S
C2159      N2166   1.157       .  T
C2160      N2167   1.158       .  T
C2161      N2165   1.157   1_565  T
C2162      N2168   1.157       .  T
C2163      N2172   1.157       .  T
C2164      N2170   1.157       .  T
C2173      C2174   1.413       .  A
C2173      C2178   1.408       .  A
C2173      C2191   1.453       .  S
C2174      C2179   1.504       .  S
C2174      C2175   1.411       .  A
C2175      C2176   1.412       .  A
C2175      C2180   1.450       .  S
C2176      C2177   1.418       .  A
C2176      C2192   1.448       .  S
C2177      C2178   1.421       .  A
C2178      C2181   1.451       .  S
C2179      C2182   1.414       .  A
C2179      C2186   1.415       .  A
C2180      N2197   1.156       .  T
C2181      N2199   1.157       .  T
C2182      C2183   1.408       .  A
C2182      C2187   1.451       .  S
C2183      C2184   1.411       .  A
C2183      C2189   1.449       .  S
C2184      C2185   1.409       .  A
C2185      C2186   1.407       .  A
C2185      C2188   1.451       .  S
C2186      C2190   1.448       .  S
C2187      N2194   1.157       .  T
C2188      N2195   1.157       .  T
C2189      N2193   1.157       .  T
C2190      N2196   1.156       .  T
C2191      N2200   1.157       .  T
C2192      N2198   1.157       .  T
C2201      C2202   1.409       .  A
C2201      C2206   1.409       .  A
C2201      C2219   1.453       .  S
C2202      C2207   1.492       .  S
C2202      C2203   1.409       .  A
C2203      C2204   1.407       .  A
C2203      C2208   1.449       .  S
C2204      C2205   1.416       .  A
C2204      C2220   1.451       .  S
C2205      C2206   1.418       .  A
C2206      C2209   1.448       .  S
C2207      C2210   1.412       .  A
C2207      C2214   1.410       .  A
C2208      N2225   1.157       .  T
C2209      N2227   1.157       .  T
C2210      C2211   1.403       .  A
C2210      C2215   1.454       .  S
C2211      C2212   1.414       .  A
C2211      C2217   1.452       .  S
C2212      C2213   1.414       .  A
C2213      C2214   1.413       .  A
C2213      C2216   1.449       .  S
C2214      C2218   1.450       .  S
C2215      N2222   1.157       .  T
C2216      N2223   1.157       .  T
C2217      N2221   1.157       .  T
C2218      N2224   1.157       .  T
C2219      N2228   1.157       .  T
C2220      N2226   1.157       .  T
C2229      C2230   1.409   1_565  A
C2229      C2234   1.412       .  A
C2229      C2247   1.452       .  S
C2230      C2235   1.497       .  S
C2230      C2231   1.411       .  A
C2231      C2232   1.406       .  A
C2231      C2236   1.452       .  S
C2232      C2233   1.420       .  A
C2232      C2248   1.452       .  S
C2233      C2234   1.420   1_545  A
C2234      C2237   1.448       .  S
C2235      C2238   1.413   1_545  A
C2235      C2242   1.409       .  A
C2236      N2253   1.157       .  T
C2237      N2255   1.157       .  T
C2238      C2239   1.410       .  A
C2238      C2243   1.452       .  S
C2239      C2240   1.410   1_565  A
C2239      C2245   1.448       .  S
C2240      C2241   1.413       .  A
C2241      C2242   1.406       .  A
C2241      C2244   1.449       .  S
C2242      C2246   1.447       .  S
C2243      N2250   1.157       .  T
C2244      N2251   1.157       .  T
C2245      N2249   1.156       .  T
C2246      N2252   1.155       .  T
C2247      N2256   1.157       .  T
C2248      N2254   1.157       .  T
C2257      C2258   1.404       .  A
C2257      C2262   1.409       .  A
C2257      C2275   1.455       .  S
C2258      C2263   1.500       .  S
C2258      C2259   1.407       .  A
C2259      C2260   1.421       .  A
C2259      C2264   1.449       .  S
C2260      C2261   1.428       .  A
C2260      C2276   1.447       .  S
C2261      C2262   1.431       .  A
C2262      C2265   1.449       .  S
C2263      C2266   1.408       .  A
C2263      C2270   1.409       .  A
C2264      N2281   1.157       .  T
C2265      N2283   1.156   1_545  T
C2266      C2267   1.413       .  A
C2266      C2271   1.450       .  S
C2267      C2268   1.420       .  A
C2267      C2273   1.447       .  S
C2268      C2269   1.423       .  A
C2269      C2270   1.414       .  A
C2269      C2272   1.451       .  S
C2270      C2274   1.449       .  S
C2271      N2278   1.157       .  T
C2272      N2279   1.157       .  T
C2273      N2277   1.158       .  T
C2274      N2280   1.157       .  T
C2275      N2284   1.158       .  T
C2276      N2282   1.158       .  T
C2285      C2286   1.404       .  A
C2285      C2290   1.407       .  A
C2285      C2303   1.456       .  S
C2286      C2291   1.497       .  S
C2286      C2287   1.406       .  A
C2287      C2288   1.420       .  A
C2287      C2292   1.451       .  S
C2288      C2289   1.430       .  A
C2288      C2304   1.448       .  S
C2289      C2290   1.433       .  A
C2290      C2293   1.453       .  S
C2291      C2294   1.408       .  A
C2291      C2298   1.406       .  A
C2292      N2309   1.157       .  T
C2293      N2311   1.157       .  T
C2294      C2295   1.410       .  A
C2294      C2299   1.451       .  S
C2295      C2296   1.423       .  A
C2295      C2301   1.451       .  S
C2296      C2297   1.420       .  A
C2297      C2298   1.413       .  A
C2297      C2300   1.446       .  S
C2298      C2302   1.449       .  S
C2299      N2306   1.157       .  T
C2300      N2307   1.157       .  T
C2301      N2305   1.157       .  T
C2302      N2308   1.157       .  T
C2303      N2312   1.157       .  T
C2304      N2310   1.158       .  T
C2313      C2314   1.414       .  A
C2313      C2318   1.409       .  A
C2313      C2331   1.448       .  S
C2314      C2319   1.510       .  S
C2314      C2315   1.417       .  A
C2315      C2316   1.415       .  A
C2315      C2320   1.450       .  S
C2316      C2317   1.411       .  A
C2316      C2332   1.450       .  S
C2317      C2318   1.410       .  A
C2318      C2321   1.450       .  S
C2319      C2322   1.415       .  A
C2319      C2326   1.415       .  A
C2320      N2337   1.157       .  T
C2321      N2339   1.157       .  T
C2322      C2323   1.418       .  A
C2322      C2327   1.451       .  S
C2323      C2324   1.419       .  A
C2323      C2329   1.448       .  S
C2324      C2325   1.419       .  A
C2325      C2326   1.407       .  A
C2325      C2328   1.453       .  S
C2326      C2330   1.453       .  S
C2327      N2334   1.157       .  T
C2328      N2335   1.157       .  T
C2329      N2333   1.157       .  T
C2330      N2336   1.157       .  T
C2331      N2340   1.155       .  T
C2332      N2338   1.157       .  T
C2341      C2342   1.408       .  A
C2341      C2346   1.423       .  A
C2341      C2359   1.449       .  S
C2342      C2347   1.505       .  S
C2342      C2343   1.405       .  A
C2343      C2344   1.407       .  A
C2343      C2348   1.456       .  S
C2344      C2345   1.435       .  A
C2344      C2360   1.453       .  S
C2345      C2346   1.428       .  A
C2346      C2349   1.448       .  S
C2347      C2350   1.406       .  A
C2347      C2354   1.404       .  A
C2348      N2365   1.157       .  T
C2349      N2367   1.158       .  T
C2350      C2351   1.421       .  A
C2350      C2355   1.450       .  S
C2351      C2352   1.431       .  A
C2351      C2357   1.450       .  S
C2352      C2353   1.435       .  A
C2353      C2354   1.410       .  A
C2353      C2356   1.452       .  S
C2354      C2358   1.455       .  S
C2355      N2362   1.157       .  T
C2356      N2363   1.158       .  T
C2357      N2361   1.158       .  T
C2358      N2364   1.157       .  T
C2359      N2368   1.157       .  T
C2360      N2366   1.157       .  T
C2369      C2370   1.409       .  A
C2369      C2374   1.409       .  A
C2369      C2387   1.453       .  S
C2370      C2375   1.491       .  S
C2370      C2371   1.407       .  A
C2371      C2372   1.409       .  A
C2371      C2376   1.449       .  S
C2372      C2373   1.414       .  A
C2372      C2388   1.450       .  S
C2373      C2374   1.414       .  A
C2374      C2377   1.447       .  S
C2375      C2378   1.408       .  A
C2375      C2382   1.404       .  A
C2376      N2393   1.157       .  T
C2377      N2395   1.157       .  T
C2378      C2379   1.408       .  A
C2378      C2383   1.452       .  S
C2379      C2380   1.420       .  A
C2379      C2385   1.449       .  S
C2380      C2381   1.418       .  A
C2381      C2382   1.410       .  A
C2381      C2384   1.448       .  S
C2382      C2386   1.450       .  S
C2383      N2390   1.157       .  T
C2384      N2391   1.157       .  T
C2385      N2389   1.157       .  T
C2386      N2392   1.157       .  T
C2387      N2396   1.157       .  T
C2388      N2394   1.157       .  T
C2397      C2398   1.408   1_545  A
C2397      C2402   1.421       .  A
C2397      C2415   1.450       .  S
C2398      C2403   1.506   1_565  S
C2398      C2399   1.408       .  A
C2399      C2400   1.405       .  A
C2399      C2404   1.456       .  S
C2400      C2401   1.431       .  A
C2400      C2416   1.453       .  S
C2401      C2402   1.429   1_565  A
C2402      C2405   1.449       .  S
C2403      C2406   1.409       .  A
C2403      C2410   1.406       .  A
C2404      N2421   1.157       .  T
C2405      N2423   1.158       .  T
C2406      C2407   1.421       .  A
C2406      C2411   1.449   1_545  S
C2407      C2408   1.429       .  A
C2407      C2413   1.450   1_545  S
C2408      C2409   1.431       .  A
C2409      C2410   1.403       .  A
C2409      C2412   1.452   1_545  S
C2410      C2414   1.455       .  S
C2411      N2418   1.157       .  T
C2412      N2419   1.158       .  T
C2413      N2417   1.157       .  T
C2414      N2420   1.157       .  T
C2415      N2424   1.157       .  T
C2416      N2422   1.158       .  T
C2425      C2426   1.402       .  A
C2425      C2430   1.409       .  A
C2425      C2443   1.450       .  S
C2426      C2431   1.494       .  S
C2426      C2427   1.410       .  A
C2427      C2428   1.408       .  A
C2427      C2432   1.454       .  S
C2428      C2429   1.425       .  A
C2428      C2444   1.450       .  S
C2429      C2430   1.422       .  A
C2430      C2433   1.444       .  S
C2431      C2434   1.414       .  A
C2431      C2438   1.410       .  A
C2432      N2449   1.157       .  T
C2433      N2451   1.156       .  T
C2434      C2435   1.407       .  A
C2434      C2439   1.451       .  S
C2435      C2436   1.409       .  A
C2435      C2441   1.451       .  S
C2436      C2437   1.413       .  A
C2437      C2438   1.407       .  A
C2437      C2440   1.450       .  S
C2438      C2442   1.452       .  S
C2439      N2446   1.157       .  T
C2440      N2447   1.157       .  T
C2441      N2445   1.157       .  T
C2442      N2448   1.157       .  T
C2443      N2452   1.157       .  T
C2444      N2450   1.157       .  T
C2453      C2454   1.407       .  A
C2453      C2458   1.412       .  A
C2453      C2471   1.449       .  S
C2454      C2459   1.485       .  S
C2454      C2455   1.410       .  A
C2455      C2456   1.402       .  A
C2455      C2460   1.454       .  S
C2456      C2457   1.410       .  A
C2456      C2472   1.449   1_545  S
C2457      C2458   1.414       .  A
C2458      C2461   1.449       .  S
C2459      C2462   1.407       .  A
C2459      C2466   1.405       .  A
C2460      N2477   1.157   1_545  T
C2461      N2479   1.157       .  T
C2462      C2463   1.408       .  A
C2462      C2467   1.452   1_545  S
C2463      C2464   1.419       .  A
C2463      C2469   1.447   1_545  S
C2464      C2465   1.417       .  A
C2465      C2466   1.407       .  A
C2465      C2468   1.451       .  S
C2466      C2470   1.449       .  S
C2467      N2474   1.157       .  T
C2468      N2475   1.157       .  T
C2469      N2473   1.158       .  T
C2470      N2476   1.157       .  T
C2471      N2480   1.157       .  T
C2472      N2478   1.156       .  T
C2481      C2482   1.411       .  A
C2481      C2486   1.407       .  A
C2481      C2499   1.451       .  S
C2482      C2487   1.486       .  S
C2482      C2483   1.409       .  A
C2483      C2484   1.405       .  A
C2483      C2488   1.451       .  S
C2484      C2485   1.411       .  A
C2484      C2500   1.452       .  S
C2485      C2486   1.409       .  A
C2486      C2489   1.451       .  S
C2487      C2490   1.407       .  A
C2487      C2494   1.407       .  A
C2488      N2505   1.157       .  T
C2489      N2507   1.157       .  T
C2490      C2491   1.408       .  A
C2490      C2495   1.451       .  S
C2491      C2492   1.418       .  A
C2491      C2497   1.451       .  S
C2492      C2493   1.419       .  A
C2493      C2494   1.406       .  A
C2493      C2496   1.453       .  S
C2494      C2498   1.452       .  S
C2495      N2502   1.157       .  T
C2496      N2503   1.158       .  T
C2497      N2501   1.157       .  T
C2498      N2504   1.157       .  T
C2499      N2508   1.157       .  T
C2500      N2506   1.157       .  T
C2509      C2510   1.410       .  A
C2509      C2514   1.408       .  A
C2509      C2527   1.452       .  S
C2510      C2515   1.492       .  S
C2510      C2511   1.410       .  A
C2511      C2512   1.410       .  A
C2511      C2516   1.451       .  S
C2512      C2513   1.417       .  A
C2512      C2528   1.452       .  S
C2513      C2514   1.415       .  A
C2514      C2517   1.451       .  S
C2515      C2518   1.410       .  A
C2515      C2522   1.410       .  A
C2516      N2533   1.157       .  T
C2517      N2535   1.157       .  T
C2518      C2519   1.408       .  A
C2518      C2523   1.451       .  S
C2519      C2520   1.415       .  A
C2519      C2525   1.452       .  S
C2520      C2521   1.415       .  A
C2521      C2522   1.408       .  A
C2521      C2524   1.452       .  S
C2522      C2526   1.451       .  S
C2523      N2530   1.157       .  T
C2524      N2531   1.157       .  T
C2525      N2529   1.157       .  T
C2526      N2532   1.157       .  T
C2527      N2536   1.157       .  T
C2528      N2534   1.158       .  T
C2537      C2538   1.411       .  A
C2537      C2542   1.410       .  A
C2537      C2555   1.450       .  S
C2538      C2543   1.498       .  S
C2538      C2539   1.413       .  A
C2539      C2540   1.409       .  A
C2539      C2544   1.450       .  S
C2540      C2541   1.411       .  A
C2540      C2556   1.450       .  S
C2541      C2542   1.414       .  A
C2542      C2545   1.450       .  S
C2543      C2546   1.412       .  A
C2543      C2550   1.409       .  A
C2544      N2561   1.157       .  T
C2545      N2563   1.157       .  T
C2546      C2547   1.408       .  A
C2546      C2551   1.454       .  S
C2547      C2548   1.419       .  A
C2547      C2553   1.452       .  S
C2548      C2549   1.421       .  A
C2549      C2550   1.415       .  A
C2549      C2552   1.450       .  S
C2550      C2554   1.450       .  S
C2551      N2558   1.157       .  T
C2552      N2559   1.157       .  T
C2553      N2557   1.157       .  T
C2554      N2560   1.157       .  T
C2555      N2564   1.157       .  T
C2556      N2562   1.157       .  T
C2565      C2566   1.408       .  A
C2565      C2570   1.403       .  A
C2565      C2583   1.452       .  S
C2566      C2571   1.482       .  S
C2566      C2567   1.408       .  A
C2567      C2568   1.409       .  A
C2567      C2572   1.450       .  S
C2568      C2569   1.413       .  A
C2568      C2584   1.450       .  S
C2569      C2570   1.415       .  A
C2570      C2573   1.453       .  S
C2571      C2574   1.407       .  A
C2571      C2578   1.408       .  A
C2572      N2589   1.157       .  T
C2573      N2591   1.157       .  T
C2574      C2575   1.402       .  A
C2574      C2579   1.451       .  S
C2575      C2576   1.414       .  A
C2575      C2581   1.453       .  S
C2576      C2577   1.415       .  A
C2577      C2578   1.408       .  A
C2577      C2580   1.451       .  S
C2578      C2582   1.450       .  S
C2579      N2586   1.157       .  T
C2580      N2587   1.158       .  T
C2581      N2585   1.157       .  T
C2582      N2588   1.157       .  T
C2583      N2592   1.157       .  T
C2584      N2590   1.157       .  T
C2593      C2594   1.415   1_565  A
C2593      C2598   1.417   1_565  A
C2593      C2611   1.450       .  S
C2594      C2599   1.507       .  S
C2594      C2595   1.412       .  A
C2595      C2596   1.411       .  A
C2595      C2600   1.451       .  S
C2596      C2597   1.418   1_554  A
C2596      C2612   1.453   1_554  S
C2597      C2598   1.415   1_556  A
C2598      C2601   1.449   1_544  S
C2599      C2602   1.414       .  A
C2599      C2606   1.412       .  A
C2600      N2617   1.157       .  T
C2601      N2619   1.157       .  T
C2602      C2603   1.417       .  A
C2602      C2607   1.451       .  S
C2603      C2604   1.419       .  A
C2603      C2609   1.451       .  S
C2604      C2605   1.417       .  A
C2605      C2606   1.411       .  A
C2605      C2608   1.452       .  S
C2606      C2610   1.451       .  S
C2607      N2614   1.157       .  T
C2608      N2615   1.157       .  T
C2609      N2613   1.158       .  T
C2610      N2616   1.157       .  T
C2611      N2620   1.157       .  T
C2612      N2618   1.157       .  T
C2621      C2622   1.408       .  A
C2621      C2626   1.406       .  A
C2621      C2639   1.451       .  S
C2622      C2627   1.487       .  S
C2622      C2623   1.410       .  A
C2623      C2624   1.409       .  A
C2623      C2628   1.451       .  S
C2624      C2625   1.414       .  A
C2624      C2640   1.451       .  S
C2625      C2626   1.415       .  A
C2626      C2629   1.452       .  S
C2627      C2630   1.409       .  A
C2627      C2634   1.408       .  A
C2628      N2645   1.157       .  T
C2629      N2647   1.157       .  T
C2630      C2631   1.405       .  A
C2630      C2635   1.452       .  S
C2631      C2632   1.414       .  A
C2631      C2637   1.452       .  S
C2632      C2633   1.416       .  A
C2633      C2634   1.409       .  A
C2633      C2636   1.452       .  S
C2634      C2638   1.450       .  S
C2635      N2642   1.157       .  T
C2636      N2643   1.158       .  T
C2637      N2641   1.157       .  T
C2638      N2644   1.157       .  T
C2639      N2648   1.157       .  T
C2640      N2646   1.157       .  T
C2649      C2650   1.411       .  A
C2649      C2654   1.417   1_554  A
C2649      C2667   1.449   1_545  S
C2650      C2655   1.501       .  S
C2650      C2651   1.410       .  A
C2651      C2652   1.409   1_554  A
C2651      C2656   1.452       .  S
C2652      C2653   1.416       .  A
C2652      C2668   1.452       .  S
C2653      C2654   1.418       .  A
C2654      C2657   1.450   1_545  S
C2655      C2658   1.410       .  A
C2655      C2662   1.410       .  A
C2656      N2673   1.157       .  T
C2657      N2675   1.157       .  T
C2658      C2659   1.410       .  A
C2658      C2663   1.452       .  S
C2659      C2660   1.419       .  A
C2659      C2665   1.452       .  S
C2660      C2661   1.419       .  A
C2661      C2662   1.416       .  A
C2661      C2664   1.450       .  S
C2662      C2666   1.449       .  S
C2663      N2670   1.157       .  T
C2664      N2671   1.157       .  T
C2665      N2669   1.158       .  T
C2666      N2672   1.157       .  T
C2667      N2676   1.157       .  T
C2668      N2674   1.157       .  T
C2677      C2678   1.412       .  A
C2677      C2682   1.412       .  A
C2677      C2695   1.451       .  S
C2678      C2683   1.494       .  S
C2678      C2679   1.409       .  A
C2679      C2680   1.406       .  A
C2679      C2684   1.451       .  S
C2680      C2681   1.414       .  A
C2680      C2696   1.452       .  S
C2681      C2682   1.414       .  A
C2682      C2685   1.450       .  S
C2683      C2686   1.412       .  A
C2683      C2690   1.410       .  A
C2684      N2701   1.157       .  T
C2685      N2703   1.157       .  T
C2686      C2687   1.404       .  A
C2686      C2691   1.454       .  S
C2687      C2688   1.418       .  A
C2687      C2693   1.453       .  S
C2688      C2689   1.419       .  A
C2689      C2690   1.414       .  A
C2689      C2692   1.451       .  S
C2690      C2694   1.450       .  S
C2691      N2698   1.157       .  T
C2692      N2699   1.157       .  T
C2693      N2697   1.157       .  T
C2694      N2700   1.157       .  T
C2695      N2704   1.157       .  T
C2696      N2702   1.157       .  T
C2705      C2706   1.407       .  A
C2705      C2710   1.406       .  A
C2705      C2723   1.450       .  S
C2706      C2711   1.487       .  S
C2706      C2707   1.410       .  A
C2707      C2708   1.408       .  A
C2707      C2712   1.451       .  S
C2708      C2709   1.413       .  A
C2708      C2724   1.447       .  S
C2709      C2710   1.415       .  A
C2710      C2713   1.451       .  S
C2711      C2714   1.405       .  A
C2711      C2718   1.407       .  A
C2712      N2729   1.157       .  T
C2713      N2731   1.157       .  T
C2714      C2715   1.410       .  A
C2714      C2719   1.450       .  S
C2715      C2716   1.417       .  A
C2715      C2721   1.448       .  S
C2716      C2717   1.420       .  A
C2717      C2718   1.406       .  A
C2717      C2720   1.449       .  S
C2718      C2722   1.454       .  S
C2719      N2726   1.157       .  T
C2720      N2727   1.157       .  T
C2721      N2725   1.157       .  T
C2722      N2728   1.157       .  T
C2723      N2732   1.157       .  T
C2724      N2730   1.157       .  T
C2733      C2734   1.413   1_565  A
C2733      C2738   1.408       .  A
C2733      C2751   1.452       .  S
C2734      C2739   1.496       .  S
C2734      C2735   1.411       .  A
C2735      C2736   1.409       .  A
C2735      C2740   1.446       .  S
C2736      C2737   1.410       .  A
C2736      C2752   1.449       .  S
C2737      C2738   1.412   1_545  A
C2738      C2741   1.452       .  S
C2739      C2742   1.411   1_545  A
C2739      C2746   1.409       .  A
C2740      N2757   1.155       .  T
C2741      N2759   1.157       .  T
C2742      C2743   1.412       .  A
C2742      C2747   1.452       .  S
C2743      C2744   1.418   1_565  A
C2743      C2749   1.448       .  S
C2744      C2745   1.416       .  A
C2745      C2746   1.406       .  A
C2745      C2748   1.452       .  S
C2746      C2750   1.450       .  S
C2747      N2754   1.157       .  T
C2748      N2755   1.157       .  T
C2749      N2753   1.158       .  T
C2750      N2756   1.157       .  T
C2751      N2760   1.157       .  T
C2752      N2758   1.157       .  T
C2761      C2762   1.410       .  A
C2761      C2766   1.408       .  A
C2761      C2779   1.453       .  S
C2762      C2767   1.507       .  S
C2762      C2763   1.411       .  A
C2763      C2764   1.419       .  A
C2763      C2768   1.452       .  S
C2764      C2765   1.423       .  A
C2764      C2780   1.444       .  S
C2765      C2766   1.423       .  A
C2766      C2769   1.452       .  S
C2767      C2770   1.413       .  A
C2767      C2774   1.414       .  A
C2768      N2785   1.157       .  T
C2769      N2787   1.157       .  T
C2770      C2771   1.414       .  A
C2770      C2775   1.450       .  S
C2771      C2772   1.412       .  A
C2771      C2777   1.448       .  S
C2772      C2773   1.411       .  A
C2773      C2774   1.410       .  A
C2773      C2776   1.450       .  S
C2774      C2778   1.447       .  S
C2775      N2782   1.157       .  T
C2776      N2783   1.157       .  T
C2777      N2781   1.157       .  T
C2778      N2784   1.155       .  T
C2779      N2788   1.157       .  T
C2780      N2786   1.156       .  T
C2789      C2790   1.406       .  A
C2789      C2794   1.403       .  A
C2789      C2807   1.457       .  S
C2790      C2795   1.489       .  S
C2790      C2791   1.406       .  A
C2791      C2792   1.412       .  A
C2791      C2796   1.449       .  S
C2792      C2793   1.418       .  A
C2792      C2808   1.448       .  S
C2793      C2794   1.428       .  A
C2794      C2797   1.450       .  S
C2795      C2798   1.411       .  A
C2795      C2802   1.415       .  A
C2796      N2813   1.157       .  T
C2797      N2815   1.157       .  T
C2798      C2799   1.408       .  A
C2798      C2803   1.450       .  S
C2799      C2800   1.410       .  A
C2799      C2805   1.451       .  S
C2800      C2801   1.407       .  A
C2801      C2802   1.403       .  A
C2801      C2804   1.452       .  S
C2802      C2806   1.453       .  S
C2803      N2810   1.157       .  T
C2804      N2811   1.158       .  T
C2805      N2809   1.157       .  T
C2806      N2812   1.157       .  T
C2807      N2816   1.157       .  T
C2808      N2814   1.157       .  T
C2817      C2818   1.410       .  A
C2817      C2822   1.421   1_545  A
C2817      C2835   1.451       .  S
C2818      C2823   1.510       .  S
C2818      C2819   1.407       .  A
C2819      C2820   1.413   1_545  A
C2819      C2824   1.456       .  S
C2820      C2821   1.435       .  A
C2820      C2836   1.451       .  S
C2821      C2822   1.430       .  A
C2822      C2825   1.449       .  S
C2823      C2826   1.414       .  A
C2823      C2830   1.411   1_545  A
C2824      N2841   1.157       .  T
C2825      N2843   1.158       .  T
C2826      C2827   1.418       .  A
C2826      C2831   1.449       .  S
C2827      C2828   1.421       .  A
C2827      C2833   1.450       .  S
C2828      C2829   1.420   1_545  A
C2829      C2830   1.411       .  A
C2829      C2832   1.448       .  S
C2830      C2834   1.450       .  S
C2831      N2838   1.157       .  T
C2832      N2839   1.157       .  T
C2833      N2837   1.157       .  T
C2834      N2840   1.157       .  T
C2835      N2844   1.157       .  T
C2836      N2842   1.157       .  T
C2845      C2846   1.411       .  A
C2845      C2850   1.415       .  A
C2845      C2863   1.448       .  S
C2846      C2851   1.506       .  S
C2846      C2847   1.411       .  A
C2847      C2848   1.414       .  A
C2847      C2852   1.449       .  S
C2848      C2849   1.418       .  A
C2848      C2864   1.447       .  S
C2849      C2850   1.418       .  A
C2850      C2853   1.446       .  S
C2851      C2854   1.406       .  A
C2851      C2858   1.410       .  A
C2852      N2869   1.157       .  T
C2853      N2871   1.157       .  T
C2854      C2855   1.409       .  A
C2854      C2859   1.454       .  S
C2855      C2856   1.433       .  A
C2855      C2861   1.453       .  S
C2856      C2857   1.428       .  A
C2857      C2858   1.423       .  A
C2857      C2860   1.448       .  S
C2858      C2862   1.450       .  S
C2859      N2866   1.157       .  T
C2860      N2867   1.158       .  T
C2861      N2865   1.157       .  T
C2862      N2868   1.157       .  T
C2863      N2872   1.157       .  T
C2864      N2870   1.157       .  T
C2873      C2874   1.405       .  A
C2873      C2878   1.408       .  A
C2873      C2891   1.452       .  S
C2874      C2879   1.493       .  S
C2874      C2875   1.406       .  A
C2875      C2876   1.413       .  A
C2875      C2880   1.453       .  S
C2876      C2877   1.422       .  A
C2876      C2892   1.446       .  S
C2877      C2878   1.421       .  A
C2878      C2881   1.447       .  S
C2879      C2882   1.407       .  A
C2879      C2886   1.406       .  A
C2880      N2897   1.157       .  T
C2881      N2899   1.156       .  T
C2882      C2883   1.411       .  A
C2882      C2887   1.451       .  S
C2883      C2884   1.417       .  A
C2883      C2889   1.445       .  S
C2884      C2885   1.421       .  A
C2885      C2886   1.408       .  A
C2885      C2888   1.448       .  S
C2886      C2890   1.452       .  S
C2887      N2894   1.157       .  T
C2888      N2895   1.156       .  T
C2889      N2893   1.156       .  T
C2890      N2896   1.157       .  T
C2891      N2900   1.157       .  T
C2892      N2898   1.156       .  T
C2901      C2902   1.406       .  A
C2901      C2906   1.417       .  A
C2901      C2919   1.451       .  S
C2902      C2907   1.500       .  S
C2902      C2903   1.405       .  A
C2903      C2904   1.412       .  A
C2903      C2908   1.455       .  S
C2904      C2905   1.433       .  A
C2904      C2920   1.453   1_545  S
C2905      C2906   1.429       .  A
C2906      C2909   1.447       .  S
C2907      C2910   1.411       .  A
C2907      C2914   1.411       .  A
C2908      N2925   1.158   1_545  T
C2909      N2927   1.158       .  T
C2910      C2911   1.409       .  A
C2910      C2915   1.449       .  S
C2911      C2912   1.415       .  A
C2911      C2917   1.449       .  S
C2912      C2913   1.414       .  A
C2913      C2914   1.413       .  A
C2913      C2916   1.446       .  S
C2914      C2918   1.448       .  S
C2915      N2922   1.157       .  T
C2916      N2923   1.157       .  T
C2917      N2921   1.157       .  T
C2918      N2924   1.157       .  T
C2919      N2928   1.157       .  T
C2920      N2926   1.157       .  T
C2929      C2930   1.411       .  A
C2929      C2934   1.405       .  A
C2929      C2947   1.453   1_545  S
C2930      C2935   1.493       .  S
C2930      C2931   1.411       .  A
C2931      C2932   1.412       .  A
C2931      C2936   1.449       .  S
C2932      C2933   1.411       .  A
C2932      C2948   1.449       .  S
C2933      C2934   1.417       .  A
C2934      C2937   1.453       .  S
C2935      C2938   1.408   1_545  A
C2935      C2942   1.408       .  A
C2936      N2953   1.157       .  T
C2937      N2955   1.157   1_545  T
C2938      C2939   1.410       .  A
C2938      C2943   1.453       .  S
C2939      C2940   1.419       .  A
C2939      C2945   1.448       .  S
C2940      C2941   1.420   1_565  A
C2941      C2942   1.410       .  A
C2941      C2944   1.451       .  S
C2942      C2946   1.450       .  S
C2943      N2950   1.157       .  T
C2944      N2951   1.157       .  T
C2945      N2949   1.157       .  T
C2946      N2952   1.157       .  T
C2947      N2956   1.157       .  T
C2948      N2954   1.157       .  T
C2957      C2958   1.407       .  A
C2957      C2962   1.411       .  A
C2957      C2975   1.450       .  S
C2958      C2963   1.496       .  S
C2958      C2959   1.408       .  A
C2959      C2960   1.412       .  A
C2959      C2964   1.450       .  S
C2960      C2961   1.423       .  A
C2960      C2976   1.451       .  S
C2961      C2962   1.421       .  A
C2962      C2965   1.447       .  S
C2963      C2966   1.403       .  A
C2963      C2970   1.406       .  A
C2964      N2981   1.157       .  T
C2965      N2983   1.157       .  T
C2966      C2967   1.404       .  A
C2966      C2971   1.456       .  S
C2967      C2968   1.435       .  A
C2967      C2973   1.455       .  S
C2968      C2969   1.429       .  A
C2969      C2970   1.420       .  A
C2969      C2972   1.447       .  S
C2970      C2974   1.450       .  S
C2971      N2978   1.157       .  T
C2972      N2979   1.158       .  T
C2973      N2977   1.158       .  T
C2974      N2980   1.157       .  T
C2975      N2984   1.157       .  T
C2976      N2982   1.157       .  T
C2985      C2986   1.408       .  A
C2985      C2990   1.409       .  A
C2985      C3003   1.450       .  S
C2986      C2991   1.493       .  S
C2986      C2987   1.408       .  A
C2987      C2988   1.410       .  A
C2987      C2992   1.452       .  S
C2988      C2989   1.418       .  A
C2988      C3004   1.447       .  S
C2989      C2990   1.416       .  A
C2990      C2993   1.450       .  S
C2991      C2994   1.410       .  A
C2991      C2998   1.411       .  A
C2992      N3009   1.157       .  T
C2993      N3011   1.157       .  T
C2994      C2995   1.413       .  A
C2994      C2999   1.450       .  S
C2995      C2996   1.414       .  A
C2995      C3001   1.449       .  S
C2996      C2997   1.416       .  A
C2997      C2998   1.405       .  A
C2997      C3000   1.451       .  S
C2998      C3002   1.453       .  S
C2999      N3006   1.157       .  T
C3000      N3007   1.157       .  T
C3001      N3005   1.157       .  T
C3002      N3008   1.157       .  T
C3003      N3012   1.157       .  T
C3004      N3010   1.157       .  T
C3013      C3014   1.411       .  A
C3013      C3018   1.409       .  A
C3013      C3031   1.451       .  S
C3014      C3019   1.497       .  S
C3014      C3015   1.413       .  A
C3015      C3016   1.410       .  A
C3015      C3020   1.451       .  S
C3016      C3017   1.410       .  A
C3016      C3032   1.448       .  S
C3017      C3018   1.416       .  A
C3018      C3021   1.452       .  S
C3019      C3022   1.406       .  A
C3019      C3026   1.405       .  A
C3020      N3037   1.157       .  T
C3021      N3039   1.157       .  T
C3022      C3023   1.415       .  A
C3022      C3027   1.453       .  S
C3023      C3024   1.425       .  A
C3023      C3029   1.446       .  S
C3024      C3025   1.425       .  A
C3025      C3026   1.409       .  A
C3025      C3028   1.446       .  S
C3026      C3030   1.454       .  S
C3027      N3034   1.157       .  T
C3028      N3035   1.156       .  T
C3029      N3033   1.156       .  T
C3030      N3036   1.157       .  T
C3031      N3040   1.157       .  T
C3032      N3038   1.156       .  T
C3041      C3042   1.409       .  A
C3041      C3046   1.409       .  A
C3041      C3059   1.451       .  S
C3042      C3047   1.488       .  S
C3042      C3043   1.409       .  A
C3043      C3044   1.406       .  A
C3043      C3048   1.452       .  S
C3044      C3045   1.414       .  A
C3044      C3060   1.452       .  S
C3045      C3046   1.415       .  A
C3046      C3049   1.451       .  S
C3047      C3050   1.409       .  A
C3047      C3054   1.411       .  A
C3048      N3065   1.157       .  T
C3049      N3067   1.157       .  T
C3050      C3051   1.408       .  A
C3050      C3055   1.450       .  S
C3051      C3052   1.414       .  A
C3051      C3057   1.451       .  S
C3052      C3053   1.412       .  A
C3053      C3054   1.405       .  A
C3053      C3056   1.452       .  S
C3054      C3058   1.452       .  S
C3055      N3062   1.157       .  T
C3056      N3063   1.157       .  T
C3057      N3061   1.157       .  T
C3058      N3064   1.157       .  T
C3059      N3068   1.157       .  T
C3060      N3066   1.157       .  T
C3069      C3070   1.409       .  A
C3069      C3074   1.410       .  A
C3069      C3087   1.451       .  S
C3070      C3075   1.491       .  S
C3070      C3071   1.410       .  A
C3071      C3072   1.407       .  A
C3071      C3076   1.451       .  S
C3072      C3073   1.415       .  A
C3072      C3088   1.452       .  S
C3073      C3074   1.417       .  A
C3074      C3077   1.452       .  S
C3075      C3078   1.409       .  A
C3075      C3082   1.409       .  A
C3076      N3093   1.157       .  T
C3077      N3095   1.158       .  T
C3078      C3079   1.408       .  A
C3078      C3083   1.452       .  S
C3079      C3080   1.416       .  A
C3079      C3085   1.452       .  S
C3080      C3081   1.415       .  A
C3081      C3082   1.410       .  A
C3081      C3084   1.451       .  S
C3082      C3086   1.450       .  S
C3083      N3090   1.157       .  T
C3084      N3091   1.157       .  T
C3085      N3089   1.157       .  T
C3086      N3092   1.157       .  T
C3087      N3096   1.157       .  T
C3088      N3094   1.157       .  T
C3097      C3098   1.410       .  A
C3097      C3102   1.409       .  A
C3097      C3115   1.451       .  S
C3098      C3103   1.495       .  S
C3098      C3099   1.410       .  A
C3099      C3100   1.410       .  A
C3099      C3104   1.450       .  S
C3100      C3101   1.414       .  A
C3100      C3116   1.451       .  S
C3101      C3102   1.414       .  A
C3102      C3105   1.452       .  S
C3103      C3106   1.406       .  A
C3103      C3110   1.408       .  A
C3104      N3121   1.157       .  T
C3105      N3123   1.158       .  T
C3106      C3107   1.415       .  A
C3106      C3111   1.451       .  S
C3107      C3108   1.427       .  A
C3107      C3113   1.450       .  S
C3108      C3109   1.426       .  A
C3109      C3110   1.405       .  A
C3109      C3112   1.453       .  S
C3110      C3114   1.453       .  S
C3111      N3118   1.157       .  T
C3112      N3119   1.158       .  T
C3113      N3117   1.158       .  T
C3114      N3120   1.156       .  T
C3115      N3124   1.157       .  T
C3116      N3122   1.157       .  T
C3125      C3126   1.410       .  A
C3125      C3130   1.405       .  A
C3125      C3143   1.452       .  S
C3126      C3131   1.486       .  S
C3126      C3127   1.409       .  A
C3127      C3128   1.408       .  A
C3127      C3132   1.450       .  S
C3128      C3129   1.413       .  A
C3128      C3144   1.451       .  S
C3129      C3130   1.413       .  A
C3130      C3133   1.452       .  S
C3131      C3134   1.408       .  A
C3131      C3138   1.409       .  A
C3132      N3149   1.157       .  T
C3133      N3151   1.157       .  T
C3134      C3135   1.406       .  A
C3134      C3139   1.452       .  S
C3135      C3136   1.415       .  A
C3135      C3141   1.452       .  S
C3136      C3137   1.416       .  A
C3137      C3138   1.408       .  A
C3137      C3140   1.451       .  S
C3138      C3142   1.451       .  S
C3139      N3146   1.157       .  T
C3140      N3147   1.158       .  T
C3141      N3145   1.157       .  T
C3142      N3148   1.157       .  T
C3143      N3152   1.157       .  T
C3144      N3150   1.157       .  T
C3153      C3154   1.410       .  A
C3153      C3158   1.410       .  A
C3153      C3171   1.452       .  S
C3154      C3159   1.500       .  S
C3154      C3155   1.411       .  A
C3155      C3156   1.416       .  A
C3155      C3160   1.450       .  S
C3156      C3157   1.417       .  A
C3156      C3172   1.450       .  S
C3157      C3158   1.417       .  A
C3158      C3161   1.452       .  S
C3159      C3162   1.409       .  A
C3159      C3166   1.410       .  A
C3160      N3177   1.157       .  T
C3161      N3179   1.157       .  T
C3162      C3163   1.410       .  A
C3162      C3167   1.452       .  S
C3163      C3164   1.420       .  A
C3163      C3169   1.452       .  S
C3164      C3165   1.418       .  A
C3165      C3166   1.415       .  A
C3165      C3168   1.450       .  S
C3166      C3170   1.450       .  S
C3167      N3174   1.157       .  T
C3168      N3175   1.157       .  T
C3169      N3173   1.158       .  T
C3170      N3176   1.157       .  T
C3171      N3180   1.157       .  T
C3172      N3178   1.157       .  T
C3181      C3182   1.409       .  A
C3181      C3186   1.408       .  A
C3181      C3199   1.453       .  S
C3182      C3187   1.489       .  S
C3182      C3183   1.407       .  A
C3183      C3184   1.411       .  A
C3183      C3188   1.450       .  S
C3184      C3185   1.419       .  A
C3184      C3200   1.451       .  S
C3185      C3186   1.418       .  A
C3186      C3189   1.451       .  S
C3187      C3190   1.410       .  A
C3187      C3194   1.407       .  A
C3188      N3205   1.157       .  T
C3189      N3207   1.157       .  T
C3190      C3191   1.409       .  A
C3190      C3195   1.451       .  S
C3191      C3192   1.414       .  A
C3191      C3197   1.451       .  S
C3192      C3193   1.416       .  A
C3193      C3194   1.408       .  A
C3193      C3196   1.452       .  S
C3194      C3198   1.451       .  S
C3195      N3202   1.157       .  T
C3196      N3203   1.158       .  T
C3197      N3201   1.157       .  T
C3198      N3204   1.157       .  T
C3199      N3208   1.157       .  T
C3200      N3206   1.157       .  T
C3209      C3210   1.412   1_565  A
C3209      C3214   1.418       .  A
C3209      C3227   1.450       .  S
C3210      C3215   1.507       .  S
C3210      C3211   1.410       .  A
C3211      C3212   1.413       .  A
C3211      C3216   1.452       .  S
C3212      C3213   1.422       .  A
C3212      C3228   1.452       .  S
C3213      C3214   1.420   1_545  A
C3214      C3217   1.450       .  S
C3215      C3218   1.415       .  A
C3215      C3222   1.413   1_545  A
C3216      N3233   1.157       .  T
C3217      N3235   1.157       .  T
C3218      C3219   1.416       .  A
C3218      C3223   1.450       .  S
C3219      C3220   1.413       .  A
C3219      C3225   1.450       .  S
C3220      C3221   1.414   1_545  A
C3221      C3222   1.412       .  A
C3221      C3224   1.452       .  S
C3222      C3226   1.450       .  S
C3223      N3230   1.157       .  T
C3224      N3231   1.157       .  T
C3225      N3229   1.157       .  T
C3226      N3232   1.157       .  T
C3227      N3236   1.157       .  T
C3228      N3234   1.157       .  T
C3237      C3238   1.407       .  A
C3237      C3242   1.412       .  A
C3237      C3255   1.450       .  S
C3238      C3243   1.492       .  S
C3238      C3239   1.410       .  A
C3239      C3240   1.406       .  A
C3239      C3244   1.453       .  S
C3240      C3241   1.418       .  A
C3240      C3256   1.452       .  S
C3241      C3242   1.421       .  A
C3242      C3245   1.451       .  S
C3243      C3246   1.410       .  A
C3243      C3250   1.412       .  A
C3244      N3261   1.157       .  T
C3245      N3263   1.158       .  T
C3246      C3247   1.408       .  A
C3246      C3251   1.450       .  S
C3247      C3248   1.412       .  A
C3247      C3253   1.451       .  S
C3248      C3249   1.410       .  A
C3249      C3250   1.409       .  A
C3249      C3252   1.450       .  S
C3250      C3254   1.451       .  S
C3251      N3258   1.157       .  T
C3252      N3259   1.157       .  T
C3253      N3257   1.157       .  T
C3254      N3260   1.157       .  T
C3255      N3264   1.157       .  T
C3256      N3262   1.157       .  T
C3265      C3266   1.410       .  A
C3265      C3270   1.406       .  A
C3265      C3283   1.451       .  S
C3266      C3271   1.489       .  S
C3266      C3267   1.410       .  A
C3267      C3268   1.409       .  A
C3267      C3272   1.451       .  S
C3268      C3269   1.413       .  A
C3268      C3284   1.450       .  S
C3269      C3270   1.413       .  A
C3270      C3273   1.452       .  S
C3271      C3274   1.408       .  A
C3271      C3278   1.408       .  A
C3272      N3289   1.157       .  T
C3273      N3291   1.157       .  T
C3274      C3275   1.407       .  A
C3274      C3279   1.452       .  S
C3275      C3276   1.417       .  A
C3275      C3281   1.452       .  S
C3276      C3277   1.417       .  A
C3277      C3278   1.409       .  A
C3277      C3280   1.451       .  S
C3278      C3282   1.451       .  S
C3279      N3286   1.157       .  T
C3280      N3287   1.157       .  T
C3281      N3285   1.157       .  T
C3282      N3288   1.157       .  T
C3283      N3292   1.157       .  T
C3284      N3290   1.157       .  T
C3293      C3294   1.408       .  A
C3293      C3298   1.408       .  A
C3293      C3311   1.451       .  S
C3294      C3299   1.487       .  S
C3294      C3295   1.411       .  A
C3295      C3296   1.406       .  A
C3295      C3300   1.452       .  S
C3296      C3297   1.413       .  A
C3296      C3312   1.451       .  S
C3297      C3298   1.415       .  A
C3298      C3301   1.451       .  S
C3299      C3302   1.409       .  A
C3299      C3306   1.410       .  A
C3300      N3317   1.157       .  T
C3301      N3319   1.157       .  T
C3302      C3303   1.410       .  A
C3302      C3307   1.451       .  S
C3303      C3304   1.417       .  A
C3303      C3309   1.451       .  S
C3304      C3305   1.413       .  A
C3305      C3306   1.403       .  A
C3305      C3308   1.452       .  S
C3306      C3310   1.452       .  S
C3307      N3314   1.157       .  T
C3308      N3315   1.157       .  T
C3309      N3313   1.158       .  T
C3310      N3316   1.157       .  T
C3311      N3320   1.157       .  T
C3312      N3318   1.157       .  T
C3321      C3322   1.412       .  A
C3321      C3326   1.408       .  A
C3321      C3339   1.454       .  S
C3322      C3327   1.498       .  S
C3322      C3323   1.408       .  A
C3323      C3324   1.414       .  A
C3323      C3328   1.450       .  S
C3324      C3325   1.421       .  A
C3324      C3340   1.450       .  S
C3325      C3326   1.420       .  A
C3326      C3329   1.453       .  S
C3327      C3330   1.413       .  A
C3327      C3334   1.411       .  A
C3328      N3345   1.157       .  T
C3329      N3347   1.158       .  T
C3330      C3331   1.409       .  A
C3330      C3335   1.448       .  S
C3331      C3332   1.410       .  A
C3331      C3337   1.451       .  S
C3332      C3333   1.411       .  A
C3333      C3334   1.408       .  A
C3333      C3336   1.451       .  S
C3334      C3338   1.450       .  S
C3335      N3342   1.157       .  T
C3336      N3343   1.157       .  T
C3337      N3341   1.157       .  T
C3338      N3344   1.157       .  T
C3339      N3348   1.158       .  T
C3340      N3346   1.157       .  T
C3349      C3350   1.408       .  A
C3349      C3354   1.409       .  A
C3349      C3367   1.451       .  S
C3350      C3355   1.492       .  S
C3350      C3351   1.408       .  A
C3351      C3352   1.410       .  A
C3351      C3356   1.451       .  S
C3352      C3353   1.419       .  A
C3352      C3368   1.451       .  S
C3353      C3354   1.418       .  A
C3354      C3357   1.451       .  S
C3355      C3358   1.409       .  A
C3355      C3362   1.410       .  A
C3356      N3373   1.157       .  T
C3357      N3375   1.157       .  T
C3358      C3359   1.410       .  A
C3358      C3363   1.451       .  S
C3359      C3360   1.417       .  A
C3359      C3365   1.451       .  S
C3360      C3361   1.415       .  A
C3361      C3362   1.408       .  A
C3361      C3364   1.452       .  S
C3362      C3366   1.451       .  S
C3363      N3370   1.157       .  T
C3364      N3371   1.157       .  T
C3365      N3369   1.157       .  T
C3366      N3372   1.157       .  T
C3367      N3376   1.157       .  T
C3368      N3374   1.157       .  T
C3377      C3378   1.411       .  A
C3377      C3382   1.411   1_554  A
C3377      C3395   1.452       .  S
C3378      C3383   1.502       .  S
C3378      C3379   1.412   1_554  A
C3379      C3380   1.415       .  A
C3379      C3384   1.450   1_556  S
C3380      C3381   1.414       .  A
C3380      C3396   1.449       .  S
C3381      C3382   1.417       .  A
C3382      C3385   1.452       .  S
C3383      C3386   1.411       .  A
C3383      C3390   1.412       .  A
C3384      N3401   1.157       .  T
C3385      N3403   1.158       .  T
C3386      C3387   1.409       .  A
C3386      C3391   1.452       .  S
C3387      C3388   1.417       .  A
C3387      C3393   1.451       .  S
C3388      C3389   1.418       .  A
C3389      C3390   1.416       .  A
C3389      C3392   1.451       .  S
C3390      C3394   1.450       .  S
C3391      N3398   1.157       .  T
C3392      N3399   1.158       .  T
C3393      N3397   1.157       .  T
C3394      N3400   1.157       .  T
C3395      N3404   1.157       .  T
C3396      N3402   1.157       .  T
C3405      C3406   1.410       .  A
C3405      C3410   1.411       .  A
C3405      C3423   1.450       .  S
C3406      C3411   1.491       .  S
C3406      C3407   1.409       .  A
C3407      C3408   1.406       .  A
C3407      C3412   1.451       .  S
C3408      C3409   1.415       .  A
C3408      C3424   1.452       .  S
C3409      C3410   1.417       .  A
C3410      C3413   1.451       .  S
C3411      C3414   1.409       .  A
C3411      C3418   1.411       .  A
C3412      N3429   1.157       .  T
C3413      N3431   1.157       .  T
C3414      C3415   1.411       .  A
C3414      C3419   1.450       .  S
C3415      C3416   1.417       .  A
C3415      C3421   1.451       .  S
C3416      C3417   1.414       .  A
C3417      C3418   1.406       .  A
C3417      C3420   1.452       .  S
C3418      C3422   1.452       .  S
C3419      N3426   1.157       .  T
C3420      N3427   1.157       .  T
C3421      N3425   1.157       .  T
C3422      N3428   1.157       .  T
C3423      N3432   1.157       .  T
C3424      N3430   1.157       .  T
C3433      C3434   1.410       .  A
C3433      C3438   1.409       .  A
C3433      C3451   1.451   1_556  S
C3434      C3439   1.498   1_556  S
C3434      C3435   1.411       .  A
C3435      C3436   1.413       .  A
C3435      C3440   1.450       .  S
C3436      C3437   1.415       .  A
C3436      C3452   1.450       .  S
C3437      C3438   1.416       .  A
C3438      C3441   1.452       .  S
C3439      C3442   1.410       .  A
C3439      C3446   1.410       .  A
C3440      N3457   1.157       .  T
C3441      N3459   1.158       .  T
C3442      C3443   1.409       .  A
C3442      C3447   1.452       .  S
C3443      C3444   1.416       .  A
C3443      C3449   1.452       .  S
C3444      C3445   1.418       .  A
C3445      C3446   1.415       .  A
C3445      C3448   1.450       .  S
C3446      C3450   1.450       .  S
C3447      N3454   1.157   1_554  T
C3448      N3455   1.157       .  T
C3449      N3453   1.157       .  T
C3450      N3456   1.157       .  T
C3451      N3460   1.157       .  T
C3452      N3458   1.157       .  T
C3461      C3462   1.407       .  A
C3461      C3466   1.405       .  A
C3461      C3479   1.455       .  S
C3462      C3467   1.487       .  S
C3462      C3463   1.405       .  A
C3463      C3464   1.412       .  A
C3463      C3468   1.450       .  S
C3464      C3465   1.421       .  A
C3464      C3480   1.450       .  S
C3465      C3466   1.423       .  A
C3466      C3469   1.453       .  S
C3467      C3470   1.412       .  A
C3467      C3474   1.409       .  A
C3468      N3485   1.157       .  T
C3469      N3487   1.158       .  T
C3470      C3471   1.406       .  A
C3470      C3475   1.451       .  S
C3471      C3472   1.410       .  A
C3471      C3477   1.452       .  S
C3472      C3473   1.411       .  A
C3473      C3474   1.406       .  A
C3473      C3476   1.452       .  S
C3474      C3478   1.450       .  S
C3475      N3482   1.157       .  T
C3476      N3483   1.157       .  T
C3477      N3481   1.157       .  T
C3478      N3484   1.157       .  T
C3479      N3488   1.157       .  T
C3480      N3486   1.157       .  T
