geometry optimzed in LAMMPS
_audit_creation_date              2020-11-30 
_audit_creation_method            'lammps2cif' 
_symmetry_space_group_name_H-M    'P1' 
_symmetry_Int_Tables_number       1 
_symmetry_cell_setting            triclinic 
loop_ 
_symmetry_equiv_pos_as_xyz 
  x,y,z 
_cell_length_a                    35.143166133348785 
_cell_length_b                    29.182252586214954 
_cell_length_c                    32.81247366645224 
_cell_angle_alpha                 90.18370851411113 
_cell_angle_beta                  90.58623564104973 
_cell_angle_gamma                 91.95123556489514 
loop_ 
_atom_site_label 
_atom_site_type_symbol 
_atom_site_fract_x 
_atom_site_fract_y 
_atom_site_fract_z 
_atom_site_charge 
C1          C  0.12773690  0.86048685  0.46850751     0.02980
C2          C  0.12127499  0.83317937  0.50302970    -0.13170
C3          C  0.13558779  0.84853207  0.54079102     0.00480
C4          C  0.14954329  0.89386916  0.54477046    -0.11700
C5          C  0.16198449  0.91640298  0.50977458     0.02970
C6          C  0.14237726  0.90560756  0.47351580    -0.11120
H7          H  0.11335353  0.79726478  0.49892502     0.08560
H8          H  0.16239472  0.90337548  0.57373276     0.06090
H9          H  0.15083884  0.92463753  0.44653416     0.05940
O10         O  0.17187473  0.68331200  0.29262668    -0.74580
O11         O  0.25692873  0.75926640  0.25652937    -0.74610
O12         O  0.20682095  0.76054471  0.31945750    -0.74660
O13         O  0.22176865  0.68211977  0.22873449    -0.74710
O14         O  0.18316407  0.72513893  0.19224001    -0.74650
O15         O  0.16879481  0.80365412  0.28236774    -0.74620
O16         O  0.21953878  0.80229861  0.21858777    -0.74600
O17         O  0.13408352  0.72662402  0.25531882    -0.74660
Ni18       Ni  0.21585531  0.71995311  0.27564657     1.25410
Ni19       Ni  0.17508328  0.76600043  0.23582812     1.25360
C20         C  0.13842250  0.69336788  0.28048076     0.87600
C21         C  0.25301539  0.79182578  0.23062789     0.87530
C22         C  0.18297442  0.79265383  0.31673210     0.87560
C23         C  0.20557089  0.69164546  0.19491244     0.87730
O24         O  0.13162412  0.72695444  0.74403600    -0.74580
O25         O  0.21817757  0.80300986  0.77844351    -0.74610
O26         O  0.17648655  0.78890487  0.70775823    -0.74660
O27         O  0.17253657  0.74091029  0.81456554    -0.74710
O28         O  0.21072101  0.68534893  0.79493365    -0.74650
O29         O  0.21402997  0.73286721  0.68765844    -0.74620
O30         O  0.25539742  0.74741208  0.75767284    -0.74600
O31         O  0.16884141  0.67109134  0.72383362    -0.74660
Ni32       Ni  0.17329818  0.76690952  0.76180935     1.25410
Ni33       Ni  0.21368736  0.70714849  0.74052653     1.25360
C34         C  0.13571137  0.68787835  0.72656676     0.87600
C35         C  0.25141104  0.78676093  0.77468205     0.87530
C36         C  0.19322177  0.76671432  0.67993209     0.87560
C37         C  0.19340356  0.70720648  0.82261124     0.87730
C38         C  0.24699856  0.63754245  0.96926623     0.02980
C39         C  0.24025289  0.59101757  0.96176374    -0.13170
C40         C  0.23347287  0.56088455  0.99414180     0.00480
C41         C  0.24759429  0.57455571  0.03268299    -0.11700
C42         C  0.25352400  0.62152494  0.04087285     0.02970
C43         C  0.25666114  0.65257622  0.00843624    -0.11120
H44         H  0.23033111  0.58251688  0.93150563     0.08560
H45         H  0.24443651  0.55120503  0.05808145     0.06090
H46         H  0.25912548  0.68906610  0.01461472     0.05940
C47         C  0.50833270  0.84961640  0.46301478     0.02980
C48         C  0.52331820  0.83679810  0.50063792    -0.13170
C49         C  0.51308338  0.86091756  0.53578516     0.00480
C50         C  0.49141195  0.90027248  0.53177857    -0.11700
C51         C  0.47347273  0.90906296  0.49466222     0.02970
C52         C  0.48859315  0.88982837  0.45962011    -0.11120
H53         H  0.53724828  0.80442757  0.50323518     0.08560
H54         H  0.48179655  0.91734606  0.55886015     0.06090
H55         H  0.47638765  0.89674359  0.42995929     0.05940
O56         O  0.42586945  0.79697644  0.21832154    -0.74580
O57         O  0.50673564  0.71611078  0.24708726    -0.74610
O58         O  0.45833527  0.72757808  0.18287975    -0.74660
O59         O  0.47559693  0.78611273  0.28384412    -0.74710
O60         O  0.43473645  0.73634497  0.31303991    -0.74650
O61         O  0.41701098  0.67794437  0.21090632    -0.74620
O62         O  0.46646509  0.66633749  0.27660436    -0.74600
O63         O  0.38540741  0.74755612  0.24806166    -0.74660
Ni64       Ni  0.46814252  0.75838870  0.23211713     1.25410
Ni65       Ni  0.42433146  0.70526796  0.26315660     1.25360
C66         C  0.39155040  0.78376752  0.22637558     0.87600
C67         C  0.50070744  0.67974866  0.26856716     0.87530
C68         C  0.43203710  0.69658745  0.17952190     0.87560
C69         C  0.46070277  0.76802500  0.31548343     0.87730
O70         O  0.38414971  0.75922983  0.74468783    -0.74580
O71         O  0.46328495  0.67968182  0.70802812    -0.74610
O72         O  0.40927404  0.67883459  0.76862781    -0.74660
O73         O  0.43651571  0.76003653  0.68372493    -0.74710
O74         O  0.47833641  0.79839283  0.72348676    -0.74650
O75         O  0.44980089  0.71804055  0.80952374    -0.74620
O76         O  0.00282905  0.71833410  0.74996958    -0.74600
O77         O  0.42433346  0.79851487  0.78546603    -0.74660
Ni78       Ni  0.42185365  0.71822153  0.72474136     1.25410
Ni79       Ni  0.46532929  0.75970874  0.76851335     1.25360
C80         C  0.39021983  0.78985087  0.77269319     0.87600
C81         C  0.49703303  0.68725702  0.72250324     0.87530
C82         C  0.42270239  0.68814569  0.80397216     0.87560
C83         C  0.46405279  0.78941214  0.68826343     0.87730
C84         C  0.38245097  0.61745227  0.95395607     0.02980
C85         C  0.37166207  0.63828088  0.99044228    -0.13170
C86         C  0.39635011  0.63657082  0.02378689     0.00480
C87         C  0.42822490  0.60986507  0.02242155    -0.11700
C88         C  0.43634860  0.58407067  0.98836533     0.02970
C89         C  0.41247748  0.58663620  0.95428934    -0.11120
H90         H  0.34856596  0.66189066  0.99077914     0.08560
H91         H  0.44889708  0.61299352  0.04705774     0.06090
H92         H  0.42079261  0.57010510  0.92630218     0.05940
C93         C  0.31890108  0.95980925  0.48083193     0.00410
C94         C  0.32082416  0.00656571  0.47674908     0.00410
C95         C  0.50397304  0.14847058  0.46678523     0.02980
C96         C  0.49305783  0.10169251  0.46364270    -0.13170
C97         C  0.47493557  0.08048472  0.49690479     0.00480
C98         C  0.48395804  0.09866100  0.53538811    -0.11700
C99         C  0.49964314  0.14299303  0.53952023     0.02970
C100        C  0.50924240  0.16853772  0.50511385    -0.11120
H101        H  0.48847286  0.08730454  0.43344180     0.08560
H102        H  0.47059003  0.08498639  0.56220895     0.06090
H103        H  0.51437938  0.20525479  0.50783149     0.05940
O104        O  0.46399225  0.30923705  0.27388776    -0.74580
O105        O  0.37797080  0.22822455  0.24720343    -0.74610
O106        O  0.42612008  0.24295798  0.31230975    -0.74660
O107        O  0.41478571  0.29468365  0.20768991    -0.74710
O108        O  0.45129854  0.24157529  0.18121434    -0.74650
O109        O  0.46584280  0.19228946  0.28665859    -0.74620
O110        O  0.41581924  0.17575834  0.22178741    -0.74600
O111        O  0.50131238  0.25823083  0.24544682    -0.74660
Ni112      Ni  0.41935669  0.27070936  0.26107830     1.25410
Ni113      Ni  0.46012147  0.21520942  0.23292530     1.25360
C114        C  0.49738788  0.29516050  0.26632853     0.87600
C115        C  0.38230776  0.19010368  0.22821343     0.87530
C116        C  0.45015478  0.21162552  0.31686970     0.87560
C117        C  0.42644570  0.27220444  0.17706484     0.87730
O118        O  0.37066527  0.22726665  0.75477470    -0.74580
O119        O  0.45601024  0.30433404  0.71882383    -0.74610
O120        O  0.42035380  0.22878843  0.69119737    -0.74660
O121        O  0.40575490  0.30459089  0.78313546    -0.74710
O122        O  0.44346157  0.26001862  0.81905848    -0.74650
O123        O  0.45950245  0.18523372  0.72678195    -0.74620
O124        O  0.49341050  0.26080083  0.75630590    -0.74600
O125        O  0.40896753  0.18300813  0.79049527    -0.74660
Ni126      Ni  0.41160562  0.26773996  0.73582444     1.25410
Ni127      Ni  0.45263096  0.22077870  0.77452695     1.25360
C128        C  0.37534453  0.19311192  0.77898445     0.87600
C129        C  0.48950593  0.29314709  0.73023054     0.87530
C130        C  0.44530119  0.19800028  0.69288867     0.87560
C131        C  0.42110407  0.29350286  0.81698702     0.87730
C132        C  0.36438169  0.36514002  0.96637511     0.02980
C133        C  0.35653044  0.33029688  0.99498219    -0.13170
C134        C  0.37815083  0.32957152  0.03075387     0.00480
C135        C  0.40739302  0.36232695  0.03678708    -0.11700
C136        C  0.41326596  0.39832461  0.00952077     0.02970
C137        C  0.38480996  0.40451217  0.97973873    -0.11120
H138        H  0.34173996  0.29895595  0.98534261     0.08560
H139        H  0.42837248  0.35445867  0.05943919     0.06090
H140        H  0.38805425  0.43272385  0.95858045     0.05940
O141        O  0.16221535  0.29457605  0.71639923    -0.74580
O142        O  0.24147749  0.21229453  0.74587854    -0.74610
O143        O  0.18963197  0.21923983  0.68305361    -0.74660
O144        O  0.21430704  0.28592986  0.78043395    -0.74710
O145        O  0.17248375  0.24169379  0.81398585    -0.74650
O146        O  0.14973306  0.17357670  0.71780931    -0.74620
O147        O  0.20204762  0.16794871  0.78222427    -0.74600
O148        O  0.12150681  0.24913179  0.75019391    -0.74660
Ni149      Ni  0.20332413  0.25459778  0.73019836     1.25410
Ni150      Ni  0.15980652  0.20653773  0.76709788     1.25360
C151        C  0.12800580  0.28395493  0.72677583     0.87600
C152        C  0.23612564  0.17943863  0.77145474     0.87530
C153        C  0.16364929  0.18748419  0.68402306     0.87560
C154        C  0.20056969  0.27059756  0.81391163     0.87730
C155        C  0.26012315  0.33298552  0.96172522     0.02980
C156        C  0.26962182  0.32075591  0.00155050    -0.13170
C157        C  0.25954605  0.34912438  0.03433373     0.00480
C158        C  0.23825219  0.38800226  0.02590689    -0.11700
C159        C  0.22120422  0.39175613  0.98757779     0.02970
C160        C  0.24077170  0.37315492  0.95501467    -0.11120
H161        H  0.28074179  0.28718762  0.00712919     0.08560
H162        H  0.22759974  0.40831859  0.05059821     0.06090
H163        H  0.23279299  0.38029645  0.92392639     0.05940
C164        C  0.12222599  0.11005430  0.45962686     0.02980
C165        C  0.14905290  0.07630928  0.45744548    -0.13170
C166        C  0.16798801  0.06280430  0.49258282     0.00480
C167        C  0.15177974  0.07203038  0.53026338    -0.11700
C168        C  0.12290289  0.10401404  0.53329581     0.02970
C169        C  0.10823838  0.12347478  0.49748646    -0.11120
H170        H  0.16146027  0.06992819  0.42791538     0.08560
H171        H  0.16584132  0.06071991  0.55766671     0.06090
H172        H  0.09033520  0.15288089  0.49931367     0.05940
O173        O  0.20951558  0.17478883  0.21585550    -0.74580
O174        O  0.12945842  0.25550922  0.24716088    -0.74610
O175        O  0.18101858  0.25134969  0.18561797    -0.74660
O176        O  0.15680642  0.17920288  0.27816269    -0.74710
O177        O  0.19628447  0.22355667  0.31556412    -0.74650
O178        O  0.22311794  0.29365592  0.22186543    -0.74620
O179        O  0.16980643  0.29975884  0.28374802    -0.74600
O180        O  0.24911053  0.21740182  0.25466232    -0.74660
Ni181      Ni  0.16772872  0.21372745  0.23042609     1.25410
Ni182      Ni  0.21111168  0.26009335  0.27026439     1.25360
C183        C  0.24344912  0.18453086  0.22875958     0.87600
C184        C  0.13568687  0.28932821  0.27192782     0.87530
C185        C  0.20849376  0.28102868  0.18759302     0.87560
C186        C  0.16988413  0.19232115  0.31285100     0.87730
C187        C  0.07800527  0.49421193  0.97864994     0.00410
C188        C  0.06971384  0.44832386  0.97375492     0.00410
C189        C  0.31953278  0.96402433  0.00108089     0.00970
C190        C  0.31581012  0.01198576  0.00150950     0.00410
C191        C  0.31264285  0.12027275  0.15778507     0.02980
C192        C  0.34720015  0.13868452  0.17545539    -0.13170
C193        C  0.34753755  0.16468636  0.21202902     0.00480
C194        C  0.31295328  0.17347757  0.23047714    -0.11700
C195        C  0.27784119  0.16110391  0.21228869     0.02970
C196        C  0.27779253  0.13326789  0.17641078    -0.11120
H197        H  0.37380575  0.13497396  0.15969300     0.08560
H198        H  0.31353720  0.19369600  0.25823234     0.06090
H199        H  0.25077170  0.12274193  0.16267908     0.05940
C200        C  0.30611170  0.12073974  0.84666392     0.02980
C201        C  0.27118924  0.13240876  0.82686241    -0.13170
C202        C  0.27104409  0.15873812  0.79029767     0.00480
C203        C  0.30620479  0.17339311  0.77415020    -0.11700
C204        C  0.34078547  0.16669722  0.79424284     0.02970
C205        C  0.34069685  0.13925195  0.82987984    -0.11120
H206        H  0.24429546  0.12282901  0.84075141     0.08560
H207        H  0.30663822  0.19335918  0.74639641     0.06090
H208        H  0.36755564  0.13314439  0.84502668     0.05940
C209        C  0.32373871  0.85343861  0.15640124     0.02980
C210        C  0.28910970  0.84217720  0.17779878    -0.13170
C211        C  0.28857774  0.81420982  0.21320214     0.00480
C212        C  0.32328953  0.80132465  0.23005768    -0.11700
C213        C  0.35770471  0.80867314  0.20997244     0.02970
C214        C  0.35743867  0.83300807  0.17240331    -0.11120
H215        H  0.26198792  0.85358430  0.16699337     0.08560
H216        H  0.32328592  0.78186051  0.25810824     0.06090
H217        H  0.38309375  0.83273510  0.15487092     0.05940
C218        C  0.32186151  0.85283388  0.84646341     0.02980
C219        C  0.35653479  0.83837151  0.82820828    -0.13170
C220        C  0.35613864  0.81227111  0.79117532     0.00480
C221        C  0.32084200  0.80078924  0.77311893    -0.11700
C222        C  0.28643441  0.81164604  0.79083629     0.02970
C223        C  0.28703647  0.83985308  0.82603210    -0.11120
H224        H  0.38349451  0.84599233  0.84341094     0.08560
H225        H  0.31977192  0.78046545  0.74542698     0.06090
H226        H  0.26017757  0.85062405  0.83785902     0.05940
C227        C  0.06696155  0.62145264  0.34669729     0.02980
C228        C  0.10177460  0.64287349  0.33241790    -0.13170
C229        C  0.10358070  0.66747594  0.29518950     0.00480
C230        C  0.07022175  0.67245699  0.27263403    -0.11700
C231        C  0.03482327  0.65717083  0.28687224     0.02970
C232        C  0.03365142  0.62873893  0.32201893    -0.11120
H233        H  0.12761789  0.64220035  0.35037834     0.08560
H234        H  0.07144803  0.69191594  0.24459014     0.06090
H235        H  0.00659980  0.61288047  0.32925133     0.05940
C236        C  0.06787701  0.35584648  0.34193422     0.02980
C237        C  0.03303848  0.34413815  0.32095145    -0.13170
C238        C  0.03260681  0.31839813  0.28407575     0.00480
C239        C  0.06732299  0.30655999  0.26724298    -0.11700
C240        C  0.10199487  0.31409065  0.28784910     0.02970
C241        C  0.10208674  0.33856859  0.32538423    -0.11120
H242        H  0.00621232  0.35370509  0.33388330     0.08560
H243        H  0.06699139  0.28764619  0.23876899     0.06090
H244        H  0.12847919  0.34230741  0.34251253     0.05940
C245        C  0.06110568  0.35312124  0.65628566     0.02980
C246        C  0.02596770  0.33990817  0.67525279    -0.13170
C247        C  0.02511094  0.31442068  0.71210620     0.00480
C248        C  0.05974700  0.30199780  0.72969787    -0.11700
C249        C  0.09463152  0.30983903  0.71051181     0.02970
C250        C  0.09533010  0.33651785  0.67421529    -0.11120
H251        H  0.99929598  0.34767542  0.66048438     0.08560
H252        H  0.05940276  0.28268660  0.75782561     0.06090
H253        H  0.12233847  0.34336528  0.65947120     0.05940
C254        C  0.06632068  0.62179806  0.65309867     0.02980
C255        C  0.10103241  0.63709417  0.67258538    -0.13170
C256        C  0.10099448  0.66387195  0.70873958     0.00480
C257        C  0.06619495  0.67468665  0.72565586    -0.11700
C258        C  0.03129116  0.66324803  0.70668387     0.02970
C259        C  0.03141358  0.63504538  0.67127901    -0.11120
H260        H  0.12803112  0.63005616  0.65865148     0.08560
H261        H  0.06661374  0.69513950  0.75326936     0.06090
H262        H  0.00441446  0.62402729  0.65786803     0.05940
C263        C  0.07028452  0.50866798  0.50036089     0.00410
C264        C  0.06806150  0.46029391  0.49997606     0.00410
C265        C  0.09491506  0.55971443  0.60842112    -0.09310
C266        C  0.06712681  0.59320217  0.61367794     0.06890
C267        C  0.04198500  0.59953034  0.58011481    -0.03080
C268        C  0.04325005  0.57142647  0.54495655    -0.07530
C269        C  0.07036836  0.53726304  0.54001132     0.06000
C270        C  0.09739089  0.53320306  0.57222273    -0.02550
Br271      Br  0.14056424  0.49514050  0.56764894    -0.02250
H272        H  0.11551900  0.55436177  0.63253557     0.09910
H273        H  0.02280627  0.57722290  0.52090920     0.07930
Br274      Br  0.00782162  0.64931153  0.57735825    -0.02670
C275        C  0.08676122  0.36902299  0.58463308    -0.09310
C276        C  0.06199102  0.38083810  0.61636711     0.06890
C277        C  0.03906592  0.41931660  0.60897380    -0.03080
C278        C  0.04050822  0.44320312  0.57132241    -0.07530
C279        C  0.06591556  0.43203451  0.53990984     0.06000
C280        C  0.08912527  0.39384168  0.54753478    -0.02550
Br281      Br  0.12724605  0.37531071  0.51001617    -0.02250
H282        H  0.10484855  0.34006765  0.58863414     0.09910
H283        H  0.02173561  0.47142929  0.56692430     0.07930
Br284      Br  0.00752078  0.44440880  0.65029074    -0.02670
C285        C  0.03913577  0.37542300  0.41140068    -0.09310
C286        C  0.06807743  0.38306499  0.38219041     0.06890
C287        C  0.09640151  0.41724995  0.39231017    -0.03080
C288        C  0.09623853  0.44039934  0.43027337    -0.07530
C289        C  0.06706551  0.43366152  0.45909466     0.06000
C290        C  0.03820255  0.40029592  0.44871996    -0.02550
Br291      Br  0.49571383  0.38815884  0.48372287    -0.02250
H292        H  0.01685117  0.34973669  0.40535912     0.09910
H293        H  0.11973244  0.46359142  0.43735264     0.07930
Br294      Br  0.13469715  0.43774329  0.35455178    -0.02670
C295        C  0.10104863  0.57702415  0.40377952    -0.09310
C296        C  0.06637719  0.59250426  0.38668318     0.06890
C297        C  0.03300817  0.58030714  0.40973091    -0.03080
C298        C  0.03475603  0.55015051  0.44360708    -0.07530
C299        C  0.06945710  0.53618206  0.46044596     0.06000
C300        C  0.10286721  0.55266506  0.44099604    -0.02550
Br301      Br  0.15229249  0.54480625  0.46489429    -0.02250
H302        H  0.12785402  0.58444097  0.38911845     0.09910
H303        H  0.00860150  0.54017588  0.45890148     0.07930
Br304      Br  0.98486272  0.60901913  0.40392207    -0.02670
C305        C  0.28754567  0.02677417  0.92987620    -0.09310
C306        C  0.31328576  0.03993632  0.96159245     0.06890
C307        C  0.33586300  0.08052637  0.95478587    -0.03080
C308        C  0.33243209  0.10600235  0.91827360    -0.07530
C309        C  0.30711268  0.09260732  0.88631101     0.06000
C310        C  0.28475851  0.05175802  0.89286936    -0.02550
Br311      Br  0.25188532  0.02562838  0.85131518    -0.02250
H312        H  0.26933214  0.99649693  0.93372348     0.09910
H313        H  0.35016870  0.13677190  0.91489508     0.07930
Br314      Br  0.37444113  0.10186859  0.99277721    -0.02670
C315        C  0.34262407  0.03534192  0.07222559    -0.09310
C316        C  0.31374206  0.03863377  0.04228520     0.06890
C317        C  0.28421582  0.06904058  0.05132226    -0.03080
C318        C  0.28443639  0.09487234  0.08817271    -0.07530
C319        C  0.31310262  0.09096334  0.11850640     0.06000
C320        C  0.34185984  0.05905784  0.10995393    -0.02550
Br321      Br  0.37952545  0.04195188  0.14940945    -0.02250
H322        H  0.36667807  0.01444687  0.06617696     0.09910
H323        H  0.26179501  0.11848133  0.09282553     0.07930
Br324      Br  0.24167987  0.07583879  0.01506431    -0.02670
C325        C  0.35492151  0.92602372  0.05978941    -0.09310
C326        C  0.32014112  0.93636994  0.04094968     0.06890
C327        C  0.28681307  0.92027910  0.06072050    -0.03080
C328        C  0.28875710  0.89251761  0.09611694    -0.07530
C329        C  0.32362106  0.88289968  0.11654400     0.06000
C330        C  0.35693787  0.90334908  0.09800106    -0.02550
Br331      Br  0.40583420  0.91050075  0.12443753    -0.02250
H332        H  0.38104158  0.93889011  0.04599939     0.09910
H333        H  0.26190808  0.87934242  0.10744759     0.07930
Br334      Br  0.23740374  0.93663996  0.04136912    -0.02670
C335        C  0.34995115  0.91516031  0.89504857    -0.09310
C336        C  0.32175268  0.88039299  0.88678372     0.06890
C337        C  0.29421207  0.87288217  0.91795152    -0.03080
C338        C  0.29437563  0.90017957  0.95369200    -0.07530
C339        C  0.32151162  0.93589468  0.96123525     0.06000
C340        C  0.35034677  0.94191396  0.93149413    -0.02550
Br341      Br  0.39296354  0.98348608  0.94050756    -0.02250
H342        H  0.37215975  0.92172653  0.87298572     0.09910
H343        H  0.27282542  0.89275341  0.97613604     0.07930
Br344      Br  0.25665235  0.82363086  0.91678441    -0.02670
C345        C  0.10618104  0.12867667  0.38882794    -0.09310
C346        C  0.12444082  0.14161811  0.42534268     0.06890
C347        C  0.15532802  0.17367982  0.42469646    -0.03080
C348        C  0.16942261  0.18911021  0.38776520    -0.07530
C349        C  0.15297901  0.17407047  0.35072783     0.06000
C350        C  0.11949737  0.14547305  0.35159042    -0.02550
Br351      Br  0.09014242  0.12737900  0.30416667    -0.02250
H352        H  0.08274691  0.10358862  0.38923126     0.09910
H353        H  0.19426698  0.21211456  0.38830546     0.07930
Br354      Br  0.18346171  0.19214942  0.47284605    -0.02670
C355        C  0.16259515  0.40424239  0.94455586    -0.09310
C356        C  0.17896854  0.39756344  0.98355190     0.06890
C357        C  0.15312617  0.39097956  0.01651252    -0.03080
C358        C  0.11536551  0.40243046  0.01159476    -0.07530
C359        C  0.10121994  0.41611249  0.97388590     0.06000
C360        C  0.12392375  0.41123481  0.93942890    -0.02550
Br361      Br  0.10532094  0.41966685  0.88499014    -0.02250
H362        H  0.17927886  0.40601880  0.91730427     0.09910
H363        H  0.09783945  0.40295645  0.03829015     0.07930
Br364      Br  0.16314081  0.36280859  0.06831849    -0.02670
C365        C  0.23997334  0.28487633  0.07849442    -0.09310
C366        C  0.25596020  0.32939823  0.07556465     0.06890
C367        C  0.26004343  0.35640730  0.11119162    -0.03080
C368        C  0.24446192  0.34041931  0.14777664    -0.07530
C369        C  0.22543836  0.29737734  0.14941809     0.06000
C370        C  0.22529705  0.26850656  0.11476561    -0.02550
Br371      Br  0.20640989  0.20575627  0.11371773    -0.02250
H372        H  0.23640855  0.26316620  0.05187609     0.09910
H373        H  0.24675597  0.36187841  0.17472996     0.07930
Br374      Br  0.28704870  0.41468951  0.11134722    -0.02670
C375        C  0.13328589  0.17439478  0.57360450    -0.09310
C376        C  0.12062206  0.12834209  0.57256127     0.06890
C377        C  0.11714928  0.10403820  0.60935053    -0.03080
C378        C  0.13084257  0.12399798  0.64557919    -0.07530
C379        C  0.14787041  0.16827436  0.64568437     0.06000
C380        C  0.14700462  0.19450128  0.60956568    -0.02550
Br381      Br  0.16385441  0.25780312  0.60636682    -0.02250
H382        H  0.13535628  0.19399116  0.54575297     0.09910
H383        H  0.12933152  0.10421242  0.67341852     0.07930
Br384      Br  0.09551589  0.04286887  0.61087380    -0.02670
C385        C  0.19911758  0.27200244  0.88899306    -0.09310
C386        C  0.21945883  0.28142441  0.85320538     0.06890
C387        C  0.25877823  0.29349914  0.85644620    -0.03080
C388        C  0.27509252  0.30194179  0.89482377    -0.07530
C389        C  0.25317277  0.29836166  0.92993900     0.06000
C390        C  0.21590533  0.27917824  0.92708201    -0.02550
Br391      Br  0.18439023  0.27021504  0.97409722    -0.02250
H392        H  0.16958963  0.26009340  0.88752222     0.09910
H393        H  0.30409224  0.31489365  0.89710939     0.07930
Br394      Br  0.29230782  0.29868531  0.81067138    -0.02670
C395        C  0.46446565  0.42168088  0.96110049    -0.09310
C396        C  0.45321467  0.41482776  0.00192589     0.06890
C397        C  0.48201918  0.41586525  0.03261729    -0.03080
C398        C  0.52000143  0.42127759  0.02158181    -0.07530
C399        C  0.03054771  0.43006759  0.98117676     0.06000
C400        C  0.00219146  0.43066866  0.95086410    -0.02550
Br401      Br  0.01223832  0.44474797  0.89503584    -0.02250
H402        H  0.44426987  0.41923501  0.93610356     0.09910
H403        H  0.54089686  0.42407560  0.04581091     0.07930
Br404      Br  0.47334463  0.41529131  0.09070423    -0.02670
C405        C  0.38231226  0.35041202  0.85335120    -0.09310
C406        C  0.41032648  0.31680691  0.85475174     0.06890
C407        C  0.42391346  0.30214217  0.89301642    -0.03080
C408        C  0.40736395  0.31808935  0.92794899    -0.07530
C409        C  0.37746010  0.34860839  0.92670862     0.06000
C410        C  0.36636820  0.36702689  0.88921247    -0.02550
Br411      Br  0.32888531  0.41314692  0.88584179    -0.02250
H412        H  0.37200680  0.36295501  0.82439704     0.09910
H413        H  0.41874864  0.30730262  0.95684947     0.07930
Br414      Br  0.46458159  0.26041180  0.90186395    -0.02670
C415        C  0.42539859  0.25986986  0.10254992    -0.09310
C416        C  0.40785197  0.27740641  0.13719010     0.06890
C417        C  0.37060451  0.29409377  0.13323708    -0.03080
C418        C  0.35543196  0.30110458  0.09452786    -0.07530
C419        C  0.37660583  0.29191099  0.05995089     0.06000
C420        C  0.40925926  0.26553612  0.06410383    -0.02550
Br421      Br  0.43744757  0.24586553  0.01803680    -0.02250
H422        H  0.45252698  0.24346150  0.10502503     0.09910
H423        H  0.32985314  0.32025712  0.09161517     0.07930
Br424      Br  0.33862115  0.30874198  0.17834793    -0.02670
C425        C  0.43692708  0.18514002  0.61987810    -0.09310
C426        C  0.46035453  0.18168865  0.65439320     0.06890
C427        C  0.49924775  0.17158590  0.64970456    -0.03080
C428        C  0.51315359  0.16304844  0.61089128    -0.07530
C429        C  0.48931587  0.16609176  0.57683606     0.06000
C430        C  0.45114848  0.17816980  0.58134688    -0.02550
Br431      Br  0.41607130  0.18128211  0.53618512    -0.02250
H432        H  0.40730820  0.19378180  0.62279582     0.09910
H433        H  0.04224883  0.15265321  0.60732436     0.07930
Br434      Br  0.03563260  0.17109815  0.69381244    -0.02670
C435        C  0.45106320  0.17629098  0.42586028    -0.09310
C436        C  0.49046365  0.17730945  0.43365775     0.06890
C437        C  0.51511488  0.19924114  0.40628619    -0.03080
C438        C  0.50155966  0.20931056  0.36743191    -0.07530
C439        C  0.46291367  0.20119984  0.35760365     0.06000
C440        C  0.43704579  0.18850370  0.38795244    -0.02550
Br441      Br  0.38308453  0.18516541  0.37834650    -0.02250
H442        H  0.43140100  0.16346668  0.44859784     0.09910
H443        H  0.52078285  0.22467179  0.34530826     0.07930
Br444      Br  0.06418513  0.22263587  0.42303766    -0.02670
C445        C  0.21867582  0.02446575  0.45494591    -0.09310
C446        C  0.20857428  0.05111720  0.48861779     0.06890
C447        C  0.23822958  0.07225754  0.51269527    -0.03080
C448        C  0.27602045  0.06130440  0.50580118    -0.07530
C449        C  0.28515709  0.03206478  0.47380248     0.06000
C450        C  0.25651468  0.01786051  0.44582270    -0.02550
Br451      Br  0.26720968  0.98820264  0.39524864    -0.02250
H452        H  0.19705348  0.00908407  0.43499464     0.09910
H453        H  0.29805284  0.07364192  0.52682159     0.07930
Br454      Br  0.23075972  0.11754247  0.55430508    -0.02670
C455        C  0.41435172  0.06830163  0.45598914    -0.09310
C456        C  0.43639628  0.05705403  0.49082642     0.06890
C457        C  0.41771314  0.03188958  0.52222359    -0.03080
C458        C  0.37863060  0.02216170  0.51938739    -0.07530
C459        C  0.35784805  0.03177585  0.48386556     0.06000
C460        C  0.37564208  0.05656674  0.45268926    -0.02550
Br461      Br  0.34844786  0.07409448  0.40453621    -0.02250
H462        H  0.42650298  0.08706705  0.43082599     0.09910
H463        H  0.36492713  0.00280146  0.54358504     0.07930
Br464      Br  0.44334200  0.00334129  0.56718497    -0.02670
C465        C  0.49663429  0.56937766  0.95194753    -0.09310
C466        C  0.47374636  0.56285522  0.98653296     0.06890
C467        C  0.48872882  0.54038347  0.02074138    -0.03080
C468        C  0.52533954  0.52436598  0.01948877    -0.07530
C469        C  0.04669127  0.52653115  0.98366034     0.06000
C470        C  0.03273306  0.55093624  0.95017569    -0.02550
Br471      Br  0.06097603  0.55815472  0.90085616    -0.02250
H472        H  0.98646641  0.58862789  0.92611815     0.09910
H473        H  0.53519563  0.50570946  0.04551696     0.07930
Br474      Br  0.45975074  0.52659153  0.06900565    -0.02670
C475        C  0.40223950  0.70062875  0.87279675    -0.09310
C476        C  0.40350301  0.67033485  0.83994177     0.06890
C477        C  0.38514183  0.62688757  0.84251076    -0.03080
C478        C  0.37063794  0.61245752  0.88002296    -0.07530
C479        C  0.37578491  0.64029198  0.91490743     0.06000
C480        C  0.38932169  0.68622808  0.91016422    -0.02550
Br481      Br  0.39672665  0.73120737  0.95273278    -0.02250
H482        H  0.41346206  0.73554953  0.87008870     0.09910
H483        H  0.36008380  0.57735817  0.88316117     0.07930
Br484      Br  0.38338636  0.58409074  0.79803991    -0.02670
C485        C  0.37107155  0.65366968  0.09040803    -0.09310
C486        C  0.39467935  0.66747811  0.05840897     0.06890
C487        C  0.42677864  0.69663733  0.06624631    -0.03080
C488        C  0.43791421  0.70522987  0.10593226    -0.07530
C489        C  0.41740914  0.68625163  0.13849695     0.06000
C490        C  0.38220426  0.66284617  0.13060682    -0.02550
Br491      Br  0.34865554  0.64107845  0.17239292    -0.02250
H492        H  0.34630074  0.63143652  0.08440301     0.09910
H493        H  0.46422577  0.72494242  0.11099503     0.07930
Br494      Br  0.46288441  0.71547008  0.02539661    -0.02670
C495        C  0.41905010  0.94026386  0.45626880    -0.09310
C496        C  0.43253027  0.92111863  0.49276074     0.06890
C497        C  0.40492005  0.90510828  0.52169692    -0.03080
C498        C  0.36646798  0.91306849  0.51512340    -0.07530
C499        C  0.35426131  0.93388466  0.47941200     0.06000
C500        C  0.38040504  0.94218679  0.44802456    -0.02550
Br501      Br  0.36491228  0.95704075  0.39368591    -0.02250
H502        H  0.43847449  0.95252742  0.43305064     0.09910
H503        H  0.34625466  0.90541510  0.53909451     0.07930
Br504      Br  0.41465769  0.87082537  0.57039312    -0.02670
C505        C  0.52585776  0.80726522  0.40155125    -0.09310
C506        C  0.49899024  0.81548374  0.43140050     0.06890
C507        C  0.46031703  0.80168424  0.42457611    -0.03080
C508        C  0.44878049  0.78518084  0.38676873    -0.07530
C509        C  0.47490189  0.78207314  0.35547193     0.06000
C510        C  0.51413137  0.79033703  0.36352276    -0.02550
Br511      Br  0.55287044  0.77867064  0.32443620    -0.02250
H512        H  0.55545735  0.81678767  0.40693250     0.09910
H513        H  0.41882555  0.77712279  0.38114642     0.07930
Br514      Br  0.42019608  0.81019219  0.46280417    -0.02670
C515        C  0.51934480  0.86212086  0.61119594    -0.09310
C516        C  0.51019711  0.83734937  0.57533215     0.06890
C517        C  0.48922446  0.79527567  0.57835288    -0.03080
C518        C  0.47565903  0.78114341  0.61569327    -0.07530
C519        C  0.48154884  0.80777592  0.65092719     0.06000
C520        C  0.50529630  0.84761898  0.64900358    -0.02550
Br521      Br  0.01743567  0.88525368  0.69564217    -0.02250
H522        H  0.03532527  0.89441874  0.60931084     0.09910
H523        H  0.45941469  0.74895032  0.61672734     0.07930
Br524      Br  0.47409346  0.75579576  0.53363561    -0.02670
C525        C  0.17327909  0.53054579  0.02585901    -0.09310
C526        C  0.19739482  0.53196261  0.99169154     0.06890
C527        C  0.18153423  0.51747174  0.95380282    -0.03080
C528        C  0.14206910  0.51177494  0.94939935    -0.07530
C529        C  0.11821820  0.51140044  0.98340819     0.06000
C530        C  0.13473140  0.51884211  0.02223101    -0.02550
Br531      Br  0.10746968  0.51267020  0.07225294    -0.02250
H532        H  0.18343566  0.54030278  0.05589938     0.09910
H533        H  0.13030236  0.50397626  0.91958776     0.07930
Br534      Br  0.21222425  0.49973771  0.90839201    -0.02670
C535        C  0.23976365  0.71086746  0.87762468    -0.09310
C536        C  0.20291876  0.69793742  0.86458405     0.06890
C537        C  0.17767035  0.67546213  0.89105114    -0.03080
C538        C  0.19142725  0.66074607  0.92858610    -0.07530
C539        C  0.23008141  0.66859270  0.93950684     0.06000
C540        C  0.25306239  0.69710955  0.91543103    -0.02550
Br541      Br  0.30275081  0.71625961  0.93221303    -0.02250
H542        H  0.25862817  0.73045275  0.85776241     0.09910
H543        H  0.17303442  0.63948121  0.94758421     0.07930
Br544      Br  0.12610228  0.66026094  0.87534370    -0.02670
C545        C  0.25586817  0.61988032  0.11685192    -0.09310
C546        C  0.24117090  0.63851665  0.08080000     0.06890
C547        C  0.21014338  0.66803545  0.08328236    -0.03080
C548        C  0.19823850  0.68289979  0.12092048    -0.07530
C549        C  0.21474229  0.66720891  0.15707618     0.06000
C550        C  0.24196271  0.63278649  0.15490602    -0.02550
Br551      Br  0.25847087  0.59919707  0.20174851    -0.02250
H552        H  0.27743974  0.59429881  0.11531254     0.09910
H553        H  0.17561727  0.70719514  0.12160602     0.07930
Br554      Br  0.17949464  0.68677567  0.03764421    -0.02670
C555        C  0.22342604  0.90082691  0.47542197    -0.09310
C556        C  0.20409716  0.92439102  0.50640431     0.06890
C557        C  0.22628173  0.94943306  0.53549163    -0.03080
C558        C  0.26557108  0.95478617  0.53004405    -0.07530
C559        C  0.28308222  0.93706145  0.49527121     0.06000
C560        C  0.26249232  0.90629673  0.47017379    -0.02550
Br561      Br  0.28561175  0.87349392  0.42663058    -0.02250
H562        H  0.20824668  0.87839137  0.45433677     0.09910
H563        H  0.28195053  0.97696894  0.55068128     0.07930
Br564      Br  0.20511991  0.98105346  0.58083990    -0.02670
C565        C  0.12485248  0.85829426  0.39316277    -0.09310
C566        C  0.13692572  0.83819234  0.42963086     0.06890
C567        C  0.16533789  0.80492490  0.42823204    -0.03080
C568        C  0.18059155  0.79283612  0.39122699    -0.07530
C569        C  0.16878104  0.81279504  0.35467471     0.06000
C570        C  0.14045922  0.84614207  0.35582524    -0.02550
Br571      Br  0.12250509  0.87822247  0.30872432    -0.02250
H572        H  0.10421790  0.88504024  0.39403529     0.09910
H573        H  0.20225551  0.76730086  0.39140874     0.07930
Br574      Br  0.18945914  0.77789941  0.47492061    -0.02670
C575        C  0.19173683  0.82093030  0.57809088    -0.09310
C576        C  0.15232378  0.81566569  0.56927619     0.06890
C577        C  0.13036701  0.78339331  0.59112114    -0.03080
C578        C  0.14577446  0.76450918  0.62610320    -0.07530
C579        C  0.18309974  0.77642259  0.63838060     0.06000
C580        C  0.20712599  0.80204952  0.61304308    -0.02550
Br581      Br  0.25921787  0.81641120  0.62741552    -0.02250
H582        H  0.20988913  0.84308007  0.55964824     0.09910
H583        H  0.12790598  0.74255406  0.64508301     0.07930
Br584      Br  0.07971800  0.76473648  0.57606312    -0.02670
C585        C  0.62773692  0.86048684  0.46850749     0.02980
C586        C  0.62127501  0.83317936  0.50302968    -0.13170
C587        C  0.63558781  0.84853206  0.54079100     0.00480
C588        C  0.64954332  0.89386915  0.54477044    -0.11700
C589        C  0.66198451  0.91640298  0.50977456     0.02970
C590        C  0.64237728  0.90560755  0.47351578    -0.11120
H591        H  0.61335355  0.79726478  0.49892501     0.08560
H592        H  0.66239475  0.90337547  0.57373274     0.06090
H593        H  0.65083886  0.92463753  0.44653414     0.05940
O594        O  0.67187472  0.68331197  0.29262667    -0.74580
O595        O  0.75692872  0.75926636  0.25652935    -0.74610
O596        O  0.70682096  0.76054468  0.31945748    -0.74660
O597        O  0.72176864  0.68211972  0.22873448    -0.74710
O598        O  0.68316407  0.72513888  0.19223999    -0.74650
O599        O  0.66879481  0.80365409  0.28236772    -0.74620
O600        O  0.71953877  0.80229857  0.21858775    -0.74600
O601        O  0.63408352  0.72662399  0.25531881    -0.74660
Ni602      Ni  0.71585530  0.71995307  0.27564655     1.25410
Ni603      Ni  0.67508328  0.76600039  0.23582810     1.25360
C604        C  0.63842250  0.69336785  0.28048075     0.87600
C605        C  0.75301538  0.79182574  0.23062787     0.87530
C606        C  0.68297443  0.79265380  0.31673208     0.87560
C607        C  0.70557088  0.69164541  0.19491243     0.87730
O608        O  0.63162412  0.72695443  0.74403601    -0.74580
O609        O  0.71817757  0.80300987  0.77844351    -0.74610
O610        O  0.67648654  0.78890487  0.70775824    -0.74660
O611        O  0.67253658  0.74091029  0.81456555    -0.74710
O612        O  0.71072103  0.68534894  0.79493365    -0.74650
O613        O  0.71402997  0.73286722  0.68765845    -0.74620
O614        O  0.75539743  0.74741209  0.75767284    -0.74600
O615        O  0.66884142  0.67109134  0.72383363    -0.74660
Ni616      Ni  0.67329818  0.76690951  0.76180936     1.25410
Ni617      Ni  0.71368737  0.70714850  0.74052653     1.25360
C618        C  0.63571138  0.68787835  0.72656677     0.87600
C619        C  0.75141104  0.78676094  0.77468205     0.87530
C620        C  0.69322176  0.76671433  0.67993210     0.87560
C621        C  0.69340358  0.70720648  0.82261124     0.87730
C622        C  0.74699862  0.63754247  0.96926623     0.02980
C623        C  0.74025296  0.59101758  0.96176372    -0.13170
C624        C  0.73347294  0.56088455  0.99414177     0.00480
C625        C  0.74759435  0.57455570  0.03268297    -0.11700
C626        C  0.75352403  0.62152493  0.04087284     0.02970
C627        C  0.75666117  0.65257623  0.00843625    -0.11120
H628        H  0.73033121  0.58251690  0.93150561     0.08560
H629        H  0.74443658  0.55120501  0.05808142     0.06090
H630        H  0.75912549  0.68906610  0.01461474     0.05940
C631        C  0.00833269  0.84961638  0.46301477     0.02980
C632        C  0.02331820  0.83679809  0.50063792    -0.13170
C633        C  0.01308338  0.86091755  0.53578515     0.00480
C634        C  0.99141196  0.90027247  0.53177855    -0.11700
C635        C  0.97347273  0.90906296  0.49466220     0.02970
C636        C  0.98859315  0.88982836  0.45962010    -0.11120
H637        H  0.03724827  0.80442755  0.50323517     0.08560
H638        H  0.98179655  0.91734607  0.55886014     0.06090
H639        H  0.97638765  0.89674357  0.42995928     0.05940
O640        O  0.92586945  0.79697646  0.21832155    -0.74580
O641        O  0.00673565  0.71611079  0.24708724    -0.74610
O642        O  0.95833528  0.72757812  0.18287973    -0.74660
O643        O  0.97559693  0.78611272  0.28384412    -0.74710
O644        O  0.93473645  0.73634495  0.31303989    -0.74650
O645        O  0.91701101  0.67794438  0.21090628    -0.74620
O646        O  0.96646511  0.66633749  0.27660433    -0.74600
O647        O  0.88540741  0.74755610  0.24806164    -0.74660
Ni648      Ni  0.96814253  0.75838872  0.23211713     1.25410
Ni649      Ni  0.92433147  0.70526796  0.26315657     1.25360
C650        C  0.89155040  0.78376751  0.22637557     0.87600
C651        C  0.00070745  0.67974867  0.26856714     0.87530
C652        C  0.93203713  0.69658749  0.17952187     0.87560
C653        C  0.96070276  0.76802498  0.31548342     0.87730
O654        O  0.88414971  0.75922984  0.74468784    -0.74580
O655        O  0.96328494  0.67968182  0.70802812    -0.74610
O656        O  0.90927405  0.67883461  0.76862783    -0.74660
O657        O  0.93651570  0.76003653  0.68372493    -0.74710
O658        O  0.97833640  0.79839284  0.72348675    -0.74650
O659        O  0.94980090  0.71804058  0.80952375    -0.74620
O660        O  0.50282905  0.71833408  0.74996958    -0.74600
O661        O  0.92433346  0.79851489  0.78546603    -0.74660
Ni662      Ni  0.92185365  0.71822154  0.72474136     1.25410
Ni663      Ni  0.96532929  0.75970876  0.76851335     1.25360
C664        C  0.89021983  0.78985088  0.77269319     0.87600
C665        C  0.99703303  0.68725703  0.72250324     0.87530
C666        C  0.92270240  0.68814571  0.80397218     0.87560
C667        C  0.96405278  0.78941215  0.68826342     0.87730
C668        C  0.88245094  0.61745224  0.95395608     0.02980
C669        C  0.87166205  0.63828086  0.99044229    -0.13170
C670        C  0.89635006  0.63657072  0.02378691     0.00480
C671        C  0.92822480  0.60986488  0.02242159    -0.11700
C672        C  0.93634849  0.58407051  0.98836536     0.02970
C673        C  0.91247741  0.58663612  0.95428935    -0.11120
H674        H  0.84856598  0.66189069  0.99077914     0.08560
H675        H  0.94889696  0.61299327  0.04705781     0.06090
H676        H  0.92079255  0.57010503  0.92630218     0.05940
C677        C  0.81890109  0.95980928  0.48083191     0.00410
C678        C  0.82082418  0.00656573  0.47674906     0.00410
C679        C  0.00397305  0.14847061  0.46678522     0.02980
C680        C  0.99305784  0.10169254  0.46364269    -0.13170
C681        C  0.97493558  0.08048475  0.49690478     0.00480
C682        C  0.98395805  0.09866102  0.53538810    -0.11700
C683        C  0.99964314  0.14299305  0.53952022     0.02970
C684        C  0.00924240  0.16853775  0.50511385    -0.11120
H685        H  0.98847287  0.08730457  0.43344179     0.08560
H686        H  0.97059003  0.08498641  0.56220894     0.06090
H687        H  0.01437938  0.20525482  0.50783149     0.05940
O688        O  0.96399225  0.30923706  0.27388774    -0.74580
O689        O  0.87797080  0.22822455  0.24720342    -0.74610
O690        O  0.92612008  0.24295799  0.31230974    -0.74660
O691        O  0.91478570  0.29468365  0.20768989    -0.74710
O692        O  0.95129853  0.24157528  0.18121433    -0.74650
O693        O  0.96584281  0.19228947  0.28665858    -0.74620
O694        O  0.91581924  0.17575835  0.22178741    -0.74600
O695        O  0.00131238  0.25823084  0.24544680    -0.74660
Ni696      Ni  0.91935669  0.27070937  0.26107828     1.25410
Ni697      Ni  0.96012147  0.21520942  0.23292529     1.25360
C698        C  0.99738788  0.29516051  0.26632851     0.87600
C699        C  0.88230776  0.19010368  0.22821343     0.87530
C700        C  0.95015478  0.21162554  0.31686969     0.87560
C701        C  0.92644568  0.27220443  0.17706482     0.87730
O702        O  0.87066527  0.22726665  0.75477470    -0.74580
O703        O  0.95601024  0.30433404  0.71882383    -0.74610
O704        O  0.92035380  0.22878843  0.69119737    -0.74660
O705        O  0.90575491  0.30459089  0.78313547    -0.74710
O706        O  0.94346158  0.26001862  0.81905848    -0.74650
O707        O  0.95950245  0.18523373  0.72678195    -0.74620
O708        O  0.99341050  0.26080084  0.75630589    -0.74600
O709        O  0.90896754  0.18300813  0.79049528    -0.74660
Ni710      Ni  0.91160562  0.26773996  0.73582444     1.25410
Ni711      Ni  0.95263096  0.22077870  0.77452695     1.25360
C712        C  0.87534453  0.19311192  0.77898446     0.87600
C713        C  0.98950593  0.29314710  0.73023053     0.87530
C714        C  0.94530119  0.19800028  0.69288867     0.87560
C715        C  0.92110408  0.29350287  0.81698703     0.87730
C716        C  0.86438169  0.36513998  0.96637512     0.02980
C717        C  0.85653042  0.33029683  0.99498218    -0.13170
C718        C  0.87815078  0.32957146  0.03075388     0.00480
C719        C  0.90739298  0.36232687  0.03678711    -0.11700
C720        C  0.91326595  0.39832454  0.00952080     0.02970
C721        C  0.88480995  0.40451212  0.97973877    -0.11120
H722        H  0.84173994  0.29895590  0.98534257     0.08560
H723        H  0.92837242  0.35445858  0.05943924     0.06090
H724        H  0.88805426  0.43272381  0.95858049     0.05940
O725        O  0.66221535  0.29457604  0.71639924    -0.74580
O726        O  0.74147750  0.21229453  0.74587854    -0.74610
O727        O  0.68963197  0.21923983  0.68305362    -0.74660
O728        O  0.71430705  0.28592985  0.78043395    -0.74710
O729        O  0.67248376  0.24169378  0.81398586    -0.74650
O730        O  0.64973307  0.17357669  0.71780931    -0.74620
O731        O  0.70204762  0.16794870  0.78222427    -0.74600
O732        O  0.62150681  0.24913178  0.75019391    -0.74660
Ni733      Ni  0.70332414  0.25459777  0.73019836     1.25410
Ni734      Ni  0.65980652  0.20653773  0.76709788     1.25360
C735        C  0.62800580  0.28395492  0.72677584     0.87600
C736        C  0.73612565  0.17943862  0.77145474     0.87530
C737        C  0.66364930  0.18748419  0.68402306     0.87560
C738        C  0.70056969  0.27059755  0.81391164     0.87730
C739        C  0.76012313  0.33298551  0.96172523     0.02980
C740        C  0.76962181  0.32075592  0.00155050    -0.13170
C741        C  0.75954602  0.34912440  0.03433373     0.00480
C742        C  0.73825215  0.38800226  0.02590689    -0.11700
C743        C  0.72120419  0.39175612  0.98757778     0.02970
C744        C  0.74077167  0.37315491  0.95501466    -0.11120
H745        H  0.78074178  0.28718764  0.00712921     0.08560
H746        H  0.72759968  0.40831858  0.05059820     0.06090
H747        H  0.73279296  0.38029642  0.92392638     0.05940
C748        C  0.62222599  0.11005430  0.45962687     0.02980
C749        C  0.64905290  0.07630928  0.45744548    -0.13170
C750        C  0.66798802  0.06280431  0.49258282     0.00480
C751        C  0.65177975  0.07203038  0.53026338    -0.11700
C752        C  0.62290290  0.10401404  0.53329582     0.02970
C753        C  0.60823838  0.12347477  0.49748647    -0.11120
H754        H  0.66146027  0.06992819  0.42791538     0.08560
H755        H  0.66584134  0.06071991  0.55766671     0.06090
H756        H  0.59033521  0.15288088  0.49931368     0.05940
O757        O  0.70951558  0.17478883  0.21585550    -0.74580
O758        O  0.62945842  0.25550922  0.24716088    -0.74610
O759        O  0.68101858  0.25134969  0.18561798    -0.74660
O760        O  0.65680642  0.17920288  0.27816269    -0.74710
O761        O  0.69628447  0.22355667  0.31556412    -0.74650
O762        O  0.72311794  0.29365592  0.22186544    -0.74620
O763        O  0.66980643  0.29975884  0.28374803    -0.74600
O764        O  0.74911053  0.21740182  0.25466233    -0.74660
Ni765      Ni  0.66772871  0.21372745  0.23042610     1.25410
Ni766      Ni  0.71111168  0.26009334  0.27026439     1.25360
C767        C  0.74344912  0.18453086  0.22875958     0.87600
C768        C  0.63568687  0.28932821  0.27192783     0.87530
C769        C  0.70849376  0.28102868  0.18759302     0.87560
C770        C  0.66988413  0.19232115  0.31285100     0.87730
C771        C  0.57800533  0.49421200  0.97864990     0.00410
C772        C  0.56971386  0.44832395  0.97375488     0.00410
C773        C  0.81953277  0.96402433  0.00108090     0.00970
C774        C  0.81581012  0.01198576  0.00150950     0.00410
C775        C  0.81264285  0.12027274  0.15778508     0.02980
C776        C  0.84720015  0.13868452  0.17545540    -0.13170
C777        C  0.84753755  0.16468636  0.21202902     0.00480
C778        C  0.81295328  0.17347757  0.23047714    -0.11700
C779        C  0.77784119  0.16110391  0.21228869     0.02970
C780        C  0.77779253  0.13326789  0.17641078    -0.11120
H781        H  0.87380575  0.13497396  0.15969300     0.08560
H782        H  0.81353720  0.19369600  0.25823234     0.06090
H783        H  0.75077170  0.12274193  0.16267908     0.05940
C784        C  0.80611171  0.12073974  0.84666392     0.02980
C785        C  0.77118925  0.13240875  0.82686241    -0.13170
C786        C  0.77104410  0.15873812  0.79029768     0.00480
C787        C  0.80620480  0.17339311  0.77415021    -0.11700
C788        C  0.84078547  0.16669723  0.79424285     0.02970
C789        C  0.84069686  0.13925195  0.82987984    -0.11120
H790        H  0.74429547  0.12282901  0.84075141     0.08560
H791        H  0.80663822  0.19335918  0.74639641     0.06090
H792        H  0.86755564  0.13314439  0.84502669     0.05940
C793        C  0.82373870  0.85343860  0.15640123     0.02980
C794        C  0.78910970  0.84217717  0.17779877    -0.13170
C795        C  0.78857774  0.81420978  0.21320212     0.00480
C796        C  0.82328953  0.80132463  0.23005766    -0.11700
C797        C  0.85770471  0.80867313  0.20997243     0.02970
C798        C  0.85743867  0.83300806  0.17240331    -0.11120
H799        H  0.76198791  0.85358427  0.16699336     0.08560
H800        H  0.82328592  0.78186048  0.25810823     0.06090
H801        H  0.88309375  0.83273510  0.15487092     0.05940
C802        C  0.82186151  0.85283389  0.84646341     0.02980
C803        C  0.85653479  0.83837152  0.82820828    -0.13170
C804        C  0.85613864  0.81227113  0.79117532     0.00480
C805        C  0.82084200  0.80078926  0.77311893    -0.11700
C806        C  0.78643441  0.81164605  0.79083628     0.02970
C807        C  0.78703647  0.83985310  0.82603210    -0.11120
H808        H  0.88349451  0.84599234  0.84341095     0.08560
H809        H  0.81977192  0.78046547  0.74542698     0.06090
H810        H  0.76017756  0.85062406  0.83785902     0.05940
C811        C  0.56696155  0.62145263  0.34669731     0.02980
C812        C  0.60177460  0.64287347  0.33241790    -0.13170
C813        C  0.60358069  0.66747592  0.29518950     0.00480
C814        C  0.57022174  0.67245698  0.27263404    -0.11700
C815        C  0.53482326  0.65717082  0.28687225     0.02970
C816        C  0.53365141  0.62873892  0.32201895    -0.11120
H817        H  0.62761789  0.64220033  0.35037834     0.08560
H818        H  0.57144801  0.69191593  0.24459015     0.06090
H819        H  0.50659980  0.61288047  0.32925135     0.05940
C820        C  0.56787701  0.35584647  0.34193423     0.02980
C821        C  0.53303848  0.34413815  0.32095146    -0.13170
C822        C  0.53260681  0.31839812  0.28407576     0.00480
C823        C  0.56732299  0.30655998  0.26724299    -0.11700
C824        C  0.60199487  0.31409065  0.28784911     0.02970
C825        C  0.60208674  0.33856858  0.32538424    -0.11120
H826        H  0.50621233  0.35370508  0.33388331     0.08560
H827        H  0.56699139  0.28764619  0.23876900     0.06090
H828        H  0.62847919  0.34230741  0.34251254     0.05940
C829        C  0.56110568  0.35312123  0.65628567     0.02980
C830        C  0.52596770  0.33990816  0.67525280    -0.13170
C831        C  0.52511094  0.31442068  0.71210620     0.00480
C832        C  0.55974700  0.30199779  0.72969787    -0.11700
C833        C  0.59463152  0.30983903  0.71051182     0.02970
C834        C  0.59533011  0.33651784  0.67421530    -0.11120
H835        H  0.49929598  0.34767542  0.66048438     0.08560
H836        H  0.55940276  0.28268659  0.75782561     0.06090
H837        H  0.62233847  0.34336528  0.65947121     0.05940
C838        C  0.56632069  0.62179805  0.65309868     0.02980
C839        C  0.60103242  0.63709416  0.67258539    -0.13170
C840        C  0.60099448  0.66387195  0.70873959     0.00480
C841        C  0.56619495  0.67468664  0.72565587    -0.11700
C842        C  0.53129116  0.66324802  0.70668387     0.02970
C843        C  0.53141359  0.63504537  0.67127902    -0.11120
H844        H  0.62803113  0.63005615  0.65865149     0.08560
H845        H  0.56661374  0.69513949  0.75326937     0.06090
H846        H  0.50441447  0.62402728  0.65786804     0.05940
C847        C  0.57028452  0.50866797  0.50036090     0.00410
C848        C  0.56806150  0.46029391  0.49997607     0.00410
C849        C  0.59491507  0.55971442  0.60842113    -0.09310
C850        C  0.56712682  0.59320216  0.61367795     0.06890
C851        C  0.54198501  0.59953033  0.58011481    -0.03080
C852        C  0.54325006  0.57142646  0.54495656    -0.07530
C853        C  0.57036837  0.53726304  0.54001133     0.06000
C854        C  0.59739090  0.53320305  0.57222273    -0.02550
Br855      Br  0.64056425  0.49514050  0.56764895    -0.02250
H856        H  0.61551901  0.55436176  0.63253558     0.09910
H857        H  0.52280628  0.57722289  0.52090921     0.07930
Br858      Br  0.50782163  0.64931152  0.57735826    -0.02670
C859        C  0.58676123  0.36902298  0.58463309    -0.09310
C860        C  0.56199102  0.38083809  0.61636711     0.06890
C861        C  0.53906593  0.41931659  0.60897381    -0.03080
C862        C  0.54050823  0.44320312  0.57132242    -0.07530
C863        C  0.56591557  0.43203450  0.53990985     0.06000
C864        C  0.58912528  0.39384167  0.54753479    -0.02550
Br865      Br  0.62724606  0.37531070  0.51001618    -0.02250
H866        H  0.60484855  0.34006765  0.58863415     0.09910
H867        H  0.52173561  0.47142929  0.56692431     0.07930
Br868      Br  0.50752078  0.44440880  0.65029075    -0.02670
C869        C  0.53913577  0.37542299  0.41140069    -0.09310
C870        C  0.56807743  0.38306498  0.38219042     0.06890
C871        C  0.59640151  0.41724994  0.39231018    -0.03080
C872        C  0.59623853  0.44039933  0.43027338    -0.07530
C873        C  0.56706552  0.43366151  0.45909467     0.06000
C874        C  0.53820255  0.40029591  0.44871997    -0.02550
Br875      Br  0.99571382  0.38815885  0.48372286    -0.02250
H876        H  0.51685118  0.34973668  0.40535913     0.09910
H877        H  0.61973244  0.46359141  0.43735265     0.07930
Br878      Br  0.63469715  0.43774329  0.35455178    -0.02670
C879        C  0.60104863  0.57702414  0.40377953    -0.09310
C880        C  0.56637719  0.59250425  0.38668320     0.06890
C881        C  0.53300817  0.58030713  0.40973092    -0.03080
C882        C  0.53475603  0.55015050  0.44360709    -0.07530
C883        C  0.56945710  0.53618206  0.46044597     0.06000
C884        C  0.60286721  0.55266505  0.44099604    -0.02550
Br885      Br  0.65229250  0.54480624  0.46489430    -0.02250
H886        H  0.62785402  0.58444096  0.38911845     0.09910
H887        H  0.50860151  0.54017587  0.45890149     0.07930
Br888      Br  0.48486272  0.60901913  0.40392209    -0.02670
C889        C  0.78754567  0.02677417  0.92987621    -0.09310
C890        C  0.81328576  0.03993632  0.96159246     0.06890
C891        C  0.83586300  0.08052637  0.95478588    -0.03080
C892        C  0.83243210  0.10600235  0.91827361    -0.07530
C893        C  0.80711268  0.09260732  0.88631101     0.06000
C894        C  0.78475851  0.05175802  0.89286936    -0.02550
Br895      Br  0.75188532  0.02562838  0.85131518    -0.02250
H896        H  0.76933214  0.99649693  0.93372348     0.09910
H897        H  0.85016870  0.13677190  0.91489508     0.07930
Br898      Br  0.87444113  0.10186859  0.99277722    -0.02670
C899        C  0.84262407  0.03534192  0.07222559    -0.09310
C900        C  0.81374206  0.03863377  0.04228520     0.06890
C901        C  0.78421582  0.06904058  0.05132226    -0.03080
C902        C  0.78443639  0.09487235  0.08817271    -0.07530
C903        C  0.81310261  0.09096334  0.11850640     0.06000
C904        C  0.84185984  0.05905784  0.10995394    -0.02550
Br905      Br  0.87952544  0.04195187  0.14940946    -0.02250
H906        H  0.86667807  0.01444687  0.06617696     0.09910
H907        H  0.76179501  0.11848133  0.09282553     0.07930
Br908      Br  0.74167988  0.07583879  0.01506431    -0.02670
C909        C  0.85492150  0.92602371  0.05978941    -0.09310
C910        C  0.82014112  0.93636994  0.04094968     0.06890
C911        C  0.78681307  0.92027910  0.06072050    -0.03080
C912        C  0.78875710  0.89251761  0.09611694    -0.07530
C913        C  0.82362106  0.88289968  0.11654400     0.06000
C914        C  0.85693786  0.90334907  0.09800106    -0.02550
Br915      Br  0.90583420  0.91050074  0.12443753    -0.02250
H916        H  0.88104157  0.93889011  0.04599939     0.09910
H917        H  0.76190808  0.87934242  0.10744759     0.07930
Br918      Br  0.73740374  0.93663997  0.04136912    -0.02670
C919        C  0.84995115  0.91516032  0.89504857    -0.09310
C920        C  0.82175268  0.88039300  0.88678373     0.06890
C921        C  0.79421207  0.87288218  0.91795152    -0.03080
C922        C  0.79437563  0.90017957  0.95369200    -0.07530
C923        C  0.82151162  0.93589468  0.96123525     0.06000
C924        C  0.85034677  0.94191397  0.93149413    -0.02550
Br925      Br  0.89296354  0.98348608  0.94050757    -0.02250
H926        H  0.87215975  0.92172654  0.87298572     0.09910
H927        H  0.77282542  0.89275341  0.97613604     0.07930
Br928      Br  0.75665234  0.82363086  0.91678440    -0.02670
C929        C  0.60618104  0.12867666  0.38882795    -0.09310
C930        C  0.62444082  0.14161811  0.42534268     0.06890
C931        C  0.65532801  0.17367983  0.42469647    -0.03080
C932        C  0.66942260  0.18911021  0.38776520    -0.07530
C933        C  0.65297901  0.17407047  0.35072783     0.06000
C934        C  0.61949737  0.14547305  0.35159043    -0.02550
Br935      Br  0.59014242  0.12737899  0.30416667    -0.02250
H936        H  0.58274691  0.10358861  0.38923127     0.09910
H937        H  0.69426697  0.21211456  0.38830546     0.07930
Br938      Br  0.68346171  0.19214942  0.47284605    -0.02670
C939        C  0.66259515  0.40424246  0.94455583    -0.09310
C940        C  0.67896851  0.39756346  0.98355187     0.06890
C941        C  0.65312612  0.39097953  0.01651246    -0.03080
C942        C  0.61536546  0.40243043  0.01159470    -0.07530
C943        C  0.60121992  0.41611253  0.97388584     0.06000
C944        C  0.62392375  0.41123489  0.93942885    -0.02550
Br945      Br  0.60532097  0.41966698  0.88499009    -0.02250
H946        H  0.67927887  0.40601892  0.91730425     0.09910
H947        H  0.59783938  0.40295637  0.03829007     0.07930
Br948      Br  0.66314074  0.36280852  0.06831842    -0.02670
C949        C  0.73997333  0.28487634  0.07849442    -0.09310
C950        C  0.75596017  0.32939825  0.07556465     0.06890
C951        C  0.76004340  0.35640732  0.11119162    -0.03080
C952        C  0.74446190  0.34041933  0.14777664    -0.07530
C953        C  0.72543835  0.29737735  0.14941809     0.06000
C954        C  0.72529704  0.26850657  0.11476562    -0.02550
Br955      Br  0.70640989  0.20575627  0.11371774    -0.02250
H956        H  0.73640853  0.26316621  0.05187610     0.09910
H957        H  0.74675595  0.36187842  0.17472997     0.07930
Br958      Br  0.78704866  0.41468954  0.11134722    -0.02670
C959        C  0.63328590  0.17439478  0.57360451    -0.09310
C960        C  0.62062207  0.12834208  0.57256127     0.06890
C961        C  0.61714929  0.10403819  0.60935053    -0.03080
C962        C  0.63084258  0.12399797  0.64557919    -0.07530
C963        C  0.64787041  0.16827436  0.64568438     0.06000
C964        C  0.64700463  0.19450128  0.60956568    -0.02550
Br965      Br  0.66385441  0.25780312  0.60636682    -0.02250
H966        H  0.63535629  0.19399116  0.54575297     0.09910
H967        H  0.62933154  0.10421241  0.67341852     0.07930
Br968      Br  0.59551591  0.04286885  0.61087381    -0.02670
C969        C  0.69911758  0.27200242  0.88899307    -0.09310
C970        C  0.71945883  0.28142439  0.85320539     0.06890
C971        C  0.75877823  0.29349913  0.85644621    -0.03080
C972        C  0.77509252  0.30194177  0.89482378    -0.07530
C973        C  0.75317276  0.29836165  0.92993901     0.06000
C974        C  0.71590533  0.27917822  0.92708202    -0.02550
Br975      Br  0.68439022  0.27021502  0.97409722    -0.02250
H976        H  0.66958963  0.26009338  0.88752223     0.09910
H977        H  0.80409224  0.31489364  0.89710940     0.07930
Br978      Br  0.79230782  0.29868530  0.81067139    -0.02670
C979        C  0.96446564  0.42168079  0.96110052    -0.09310
C980        C  0.95321467  0.41482765  0.00192593     0.06890
C981        C  0.98201918  0.41586508  0.03261731    -0.03080
C982        C  0.02000144  0.42127741  0.02158182    -0.07530
C983        C  0.53054771  0.43006771  0.98117674     0.06000
C984        C  0.50219147  0.43066875  0.95086407    -0.02550
Br985      Br  0.51223834  0.44474799  0.89503580    -0.02250
H986        H  0.94426986  0.41923496  0.93610360     0.09910
H987        H  0.04089687  0.42407538  0.04581092     0.07930
Br988      Br  0.97334466  0.41529111  0.09070426    -0.02670
C989        C  0.88231226  0.35041201  0.85335120    -0.09310
C990        C  0.91032649  0.31680692  0.85475174     0.06890
C991        C  0.92391349  0.30214218  0.89301643    -0.03080
C992        C  0.90736397  0.31808936  0.92794900    -0.07530
C993        C  0.87746010  0.34860837  0.92670863     0.06000
C994        C  0.86636820  0.36702687  0.88921248    -0.02550
Br995      Br  0.82888531  0.41314690  0.88584181    -0.02250
H996        H  0.87200680  0.36295500  0.82439705     0.09910
H997        H  0.91874866  0.30730263  0.95684948     0.07930
Br998      Br  0.96458163  0.26041185  0.90186394    -0.02670
C999        C  0.92539853  0.25986980  0.10254991    -0.09310
C1000       C  0.90785194  0.27740638  0.13719009     0.06890
C1001       C  0.87060448  0.29409374  0.13323708    -0.03080
C1002       C  0.85543191  0.30110453  0.09452787    -0.07530
C1003       C  0.87660576  0.29191091  0.05995088     0.06000
C1004       C  0.90925918  0.26553603  0.06410382    -0.02550
Br1005     Br  0.93744746  0.24586541  0.01803679    -0.02250
H1006       H  0.95252692  0.24346143  0.10502501     0.09910
H1007       H  0.82985310  0.32025708  0.09161518     0.07930
Br1008     Br  0.83862114  0.30874199  0.17834794    -0.02670
C1009       C  0.93692708  0.18514003  0.61987809    -0.09310
C1010       C  0.96035453  0.18168866  0.65439319     0.06890
C1011       C  0.99924775  0.17158591  0.64970456    -0.03080
C1012       C  0.01315359  0.16304846  0.61089127    -0.07530
C1013       C  0.98931587  0.16609178  0.57683606     0.06000
C1014       C  0.95114849  0.17816982  0.58134688    -0.02550
Br1015     Br  0.91607131  0.18128213  0.53618511    -0.02250
H1016       H  0.90730820  0.19378181  0.62279581     0.09910
H1017       H  0.54224883  0.15265320  0.60732436     0.07930
Br1018     Br  0.53563260  0.17109815  0.69381245    -0.02670
C1019       C  0.95106321  0.17629102  0.42586028    -0.09310
C1020       C  0.99046366  0.17730949  0.43365775     0.06890
C1021       C  0.01511489  0.19924116  0.40628618    -0.03080
C1022       C  0.00155967  0.20931058  0.36743190    -0.07530
C1023       C  0.96291368  0.20119987  0.35760364     0.06000
C1024       C  0.93704580  0.18850373  0.38795244    -0.02550
Br1025     Br  0.88308454  0.18516545  0.37834650    -0.02250
H1026       H  0.93140101  0.16346672  0.44859784     0.09910
H1027       H  0.02078286  0.22467180  0.34530825     0.07930
Br1028     Br  0.56418511  0.22263585  0.42303767    -0.02670
C1029       C  0.71867583  0.02446577  0.45494590    -0.09310
C1030       C  0.70857429  0.05111721  0.48861778     0.06890
C1031       C  0.73822959  0.07225755  0.51269526    -0.03080
C1032       C  0.77602046  0.06130442  0.50580117    -0.07530
C1033       C  0.78515710  0.03206480  0.47380246     0.06000
C1034       C  0.75651469  0.01786054  0.44582268    -0.02550
Br1035     Br  0.76720969  0.98820267  0.39524862    -0.02250
H1036       H  0.69705350  0.00908409  0.43499463     0.09910
H1037       H  0.79805285  0.07364194  0.52682158     0.07930
Br1038     Br  0.73075973  0.11754248  0.55430507    -0.02670
C1039       C  0.91435174  0.06830166  0.45598913    -0.09310
C1040       C  0.93639629  0.05705406  0.49082640     0.06890
C1041       C  0.91771316  0.03188960  0.52222357    -0.03080
C1042       C  0.87863062  0.02216172  0.51938737    -0.07530
C1043       C  0.85784807  0.03177587  0.48386554     0.06000
C1044       C  0.87564209  0.05656677  0.45268924    -0.02550
Br1045     Br  0.84844788  0.07409451  0.40453619    -0.02250
H1046       H  0.92650299  0.08706709  0.43082598     0.09910
H1047       H  0.86492714  0.00280148  0.54358502     0.07930
Br1048     Br  0.94334202  0.00334130  0.56718495    -0.02670
C1049       C  0.99663421  0.56937755  0.95194758    -0.09310
C1050       C  0.97374625  0.56285505  0.98653299     0.06890
C1051       C  0.98872871  0.54038327  0.02074140    -0.03080
C1052       C  0.02533944  0.52436581  0.01948880    -0.07530
C1053       C  0.54669135  0.52653126  0.98366030     0.06000
C1054       C  0.53273312  0.55093632  0.95017563    -0.02550
Br1055     Br  0.56097607  0.55815472  0.90085607    -0.02250
H1056       H  0.48646648  0.58862796  0.92611809     0.09910
H1057       H  0.03519552  0.50570927  0.04551698     0.07930
Br1058     Br  0.95975059  0.52659126  0.06900562    -0.02670
C1059       C  0.90223956  0.70062875  0.87279679    -0.09310
C1060       C  0.90350303  0.67033487  0.83994179     0.06890
C1061       C  0.88514183  0.62688760  0.84251076    -0.03080
C1062       C  0.87063793  0.61245755  0.88002297    -0.07530
C1063       C  0.87578492  0.64029198  0.91490744     0.06000
C1064       C  0.88932175  0.68622807  0.91016426    -0.02550
Br1065     Br  0.89672673  0.73120734  0.95273284    -0.02250
H1066       H  0.91346214  0.73554951  0.87008876     0.09910
H1067       H  0.86008377  0.57735820  0.88316115     0.07930
Br1068     Br  0.88338631  0.58409079  0.79803990    -0.02670
C1069       C  0.87107151  0.65366984  0.09040801    -0.09310
C1070       C  0.89467938  0.66747808  0.05840896     0.06890
C1071       C  0.92677875  0.69663719  0.06624628    -0.03080
C1072       C  0.93791433  0.70522974  0.10593222    -0.07530
C1073       C  0.91740917  0.68625167  0.13849692     0.06000
C1074       C  0.88220421  0.66284639  0.13060680    -0.02550
Br1075     Br  0.84865532  0.64107909  0.17239291    -0.02250
H1076       H  0.84630063  0.63143681  0.08440301     0.09910
H1077       H  0.96422595  0.72494216  0.11099499     0.07930
Br1078     Br  0.96288457  0.71546974  0.02539656    -0.02670
C1079       C  0.91905012  0.94026387  0.45626878    -0.09310
C1080       C  0.93253028  0.92111864  0.49276072     0.06890
C1081       C  0.90492006  0.90510829  0.52169690    -0.03080
C1082       C  0.86646799  0.91306851  0.51512338    -0.07530
C1083       C  0.85426132  0.93388468  0.47941197     0.06000
C1084       C  0.88040506  0.94218681  0.44802454    -0.02550
Br1085     Br  0.86491230  0.95704078  0.39368589    -0.02250
H1086       H  0.93847451  0.95252743  0.43305062     0.09910
H1087       H  0.84625466  0.90541512  0.53909449     0.07930
Br1088     Br  0.91465770  0.87082539  0.57039311    -0.02670
C1089       C  0.02585776  0.80726519  0.40155125    -0.09310
C1090       C  0.99899023  0.81548372  0.43140050     0.06890
C1091       C  0.96031702  0.80168422  0.42457611    -0.03080
C1092       C  0.94878048  0.78518082  0.38676873    -0.07530
C1093       C  0.97490189  0.78207311  0.35547193     0.06000
C1094       C  0.01413137  0.79033700  0.36352276    -0.02550
Br1095     Br  0.05287044  0.77867061  0.32443621    -0.02250
H1096       H  0.05545735  0.81678764  0.40693250     0.09910
H1097       H  0.91882554  0.77712277  0.38114641     0.07930
Br1098     Br  0.92019607  0.81019220  0.46280415    -0.02670
C1099       C  0.01934479  0.86212086  0.61119593    -0.09310
C1100       C  0.01019710  0.83734937  0.57533215     0.06890
C1101       C  0.98922444  0.79527567  0.57835287    -0.03080
C1102       C  0.97565901  0.78114342  0.61569326    -0.07530
C1103       C  0.98154883  0.80777593  0.65092719     0.06000
C1104       C  0.00529629  0.84761898  0.64900357    -0.02550
Br1105     Br  0.51743567  0.88525368  0.69564218    -0.02250
H1106       H  0.53532527  0.89441875  0.60931085     0.09910
H1107       H  0.95941466  0.74895033  0.61672733     0.07930
Br1108     Br  0.97409344  0.75579576  0.53363560    -0.02670
C1109       C  0.67327918  0.53054572  0.02585897    -0.09310
C1110       C  0.69739489  0.53196261  0.99169149     0.06890
C1111       C  0.68153429  0.51747179  0.95380277    -0.03080
C1112       C  0.64206915  0.51177501  0.94939931    -0.07530
C1113       C  0.61821827  0.51140047  0.98340816     0.06000
C1114       C  0.63473148  0.51884206  0.02223098    -0.02550
Br1115     Br  0.60746978  0.51267006  0.07225291    -0.02250
H1116       H  0.68343575  0.54030266  0.05589935     0.09910
H1117       H  0.63030240  0.50397637  0.91958772     0.07930
Br1118     Br  0.71222429  0.49973778  0.90839193    -0.02670
C1119       C  0.73976368  0.71086747  0.87762468    -0.09310
C1120       C  0.70291879  0.69793743  0.86458405     0.06890
C1121       C  0.67767039  0.67546214  0.89105115    -0.03080
C1122       C  0.69142730  0.66074608  0.92858611    -0.07530
C1123       C  0.73008146  0.66859271  0.93950684     0.06000
C1124       C  0.75306244  0.69710956  0.91543102    -0.02550
Br1125     Br  0.80275085  0.71625963  0.93221301    -0.02250
H1126       H  0.75862820  0.73045276  0.85776240     0.09910
H1127       H  0.67303448  0.63948122  0.94758422     0.07930
Br1128     Br  0.62610232  0.66026094  0.87534373    -0.02670
C1129       C  0.75586818  0.61988028  0.11685191    -0.09310
C1130       C  0.74117091  0.63851662  0.08080000     0.06890
C1131       C  0.71014338  0.66803540  0.08328235    -0.03080
C1132       C  0.69823849  0.68289973  0.12092048    -0.07530
C1133       C  0.71474227  0.66720886  0.15707617     0.06000
C1134       C  0.74196270  0.63278644  0.15490601    -0.02550
Br1135     Br  0.75847086  0.59919701  0.20174851    -0.02250
H1136       H  0.77743975  0.59429878  0.11531254     0.09910
H1137       H  0.67561725  0.70719507  0.12160601     0.07930
Br1138     Br  0.67949465  0.68677561  0.03764420    -0.02670
C1139       C  0.72342606  0.90082692  0.47542194    -0.09310
C1140       C  0.70409718  0.92439102  0.50640429     0.06890
C1141       C  0.72628174  0.94943307  0.53549161    -0.03080
C1142       C  0.76557109  0.95478619  0.53004403    -0.07530
C1143       C  0.78308223  0.93706147  0.49527118     0.06000
C1144       C  0.76249234  0.90629674  0.47017376    -0.02550
Br1145     Br  0.78561177  0.87349395  0.42663055    -0.02250
H1146       H  0.70824670  0.87839138  0.45433675     0.09910
H1147       H  0.78195055  0.97696896  0.55068125     0.07930
Br1148     Br  0.70511992  0.98105345  0.58083988    -0.02670
C1149       C  0.62485250  0.85829425  0.39316275    -0.09310
C1150       C  0.63692574  0.83819233  0.42963084     0.06890
C1151       C  0.66533791  0.80492489  0.42823202    -0.03080
C1152       C  0.68059157  0.79283611  0.39122697    -0.07530
C1153       C  0.66878105  0.81279502  0.35467469     0.06000
C1154       C  0.64045924  0.84614206  0.35582522    -0.02550
Br1155     Br  0.62250511  0.87822246  0.30872430    -0.02250
H1156       H  0.60421792  0.88504023  0.39403527     0.09910
H1157       H  0.70225552  0.76730084  0.39140872     0.07930
Br1158     Br  0.68945917  0.77789941  0.47492060    -0.02670
C1159       C  0.69173684  0.82093029  0.57809088    -0.09310
C1160       C  0.65232379  0.81566568  0.56927617     0.06890
C1161       C  0.63036702  0.78339331  0.59112113    -0.03080
C1162       C  0.64577445  0.76450920  0.62610320    -0.07530
C1163       C  0.68309974  0.77642260  0.63838061     0.06000
C1164       C  0.70712600  0.80204951  0.61304308    -0.02550
Br1165     Br  0.75921787  0.81641119  0.62741553    -0.02250
H1166       H  0.70988915  0.84308005  0.55964823     0.09910
H1167       H  0.62790597  0.74255409  0.64508302     0.07930
Br1168     Br  0.57971801  0.76473648  0.57606310    -0.02670
loop_ 
_geom_bond_atom_site_label_1 
_geom_bond_atom_site_label_2 
_geom_bond_distance 
_geom_bond_site_symmetry_2 
_ccdc_geom_bond_type 
C1            C2   1.403       .  A
C1            C6   1.406       .  A
C1          C566   1.474       .  S
C2            C3   1.399       .  A
C2            H7   1.083       .  S
C3            C4   1.401       .  A
C3          C576   1.474       .  S
C4            C5   1.392       .  A
C4            H8   1.079       .  S
C5            C6   1.398       .  A
C5          C556   1.496       .  S
C6            H9   1.085       .  S
O10         Ni18   1.937       .  S
O10          C20   1.281       .  A
O11         Ni18   1.924       .  S
O11          C21   1.287       .  A
O12         Ni18   1.896       .  S
O12          C22   1.281       .  A
O13         Ni18   1.909       .  S
O13          C23   1.278       .  A
O14         Ni19   1.889       .  S
O14          C23   1.279       .  A
O15         Ni19   1.898       .  S
O15          C22   1.275       .  A
O16         Ni19   1.947       .  S
O16          C21   1.284       .  A
O17         Ni19   1.928       .  S
O17          C20   1.288       .  A
Ni18        Ni19   2.381       .  S
C20         C229   1.502       .  S
C21         C211   1.509       .  S
C22         C569   1.474       .  S
C23         C549   1.474       .  S
O24         Ni32   1.925       .  S
O24          C34   1.288       .  A
O25         Ni32   1.939       .  S
O25          C35   1.282       .  A
O26         Ni32   1.891       .  S
O26          C36   1.278       .  A
O27         Ni32   1.892       .  S
O27          C37   1.273       .  A
O28         Ni33   1.900       .  S
O28          C37   1.279       .  A
O29         Ni33   1.892       .  S
O29          C36   1.273       .  A
O30         Ni33   1.925       .  S
O30          C35   1.288       .  A
O31         Ni33   1.938       .  S
O31          C34   1.282       .  A
Ni32        Ni33   2.393       .  S
C34         C256   1.499       .  S
C35         C222   1.499       .  S
C36         C579   1.437       .  S
C37         C536   1.443       .  S
C38          C39   1.391       .  A
C38          C43   1.392   1_556  A
C38         C539   1.469       .  S
C39          C40   1.398       .  A
C39          H44   1.074       .  S
C40          C41   1.405   1_556  A
C40         C526   1.500       .  S
C41          C42   1.404       .  A
C41          H45   1.082       .  S
C42          C43   1.403       .  A
C42         C546   1.474       .  S
C43          H46   1.084       .  S
C47          C48   1.394       .  A
C47          C52   1.388       .  A
C47         C506   1.463       .  S
C48          C49   1.405       .  A
C48          H53   1.082       .  S
C49          C50   1.405       .  A
C49         C516   1.473       .  S
C50          C51   1.394       .  A
C50          H54   1.080       .  S
C51          C52   1.396       .  A
C51         C496   1.494       .  S
C52          H55   1.082       .  S
O56         Ni64   1.945       .  S
O56          C66   1.284       .  A
O57         Ni64   1.925       .  S
O57          C67   1.288       .  A
O58         Ni64   1.870       .  S
O58          C68   1.275       .  A
O59         Ni64   1.890       .  S
O59          C69   1.275       .  A
O60         Ni65   1.895       .  S
O60          C69   1.278       .  A
O61         Ni65   1.900       .  S
O61          C68   1.277       .  A
O62         Ni65   1.945       .  S
O62          C67   1.283       .  A
O63         Ni65   1.935       .  S
O63          C66   1.289       .  A
Ni64        Ni65   2.385       .  S
C66         C213   1.510       .  S
C67         C815   1.508       .  S
C68         C489   1.463       .  S
C69         C509   1.452       .  S
O70         Ni78   1.933       .  S
O70          C80   1.291       .  A
O71         Ni78   1.952       .  S
O71          C81   1.285       .  A
O72         Ni78   1.892       .  S
O72          C82   1.273       .  A
O73         Ni78   1.884       .  S
O73          C83   1.278       .  A
O74         Ni79   1.912       .  S
O74          C83   1.278       .  A
O75         Ni79   1.889       .  S
O75          C82   1.281       .  A
O76        Ni663   1.920   1_455  S
O76         C665   1.286   1_455  A
O77         Ni79   1.947       .  S
O77          C80   1.283       .  A
Ni78        Ni79   2.383       .  S
Ni79        O660   1.920       .  S
C80         C220   1.515       .  S
C81         C842   1.509       .  S
C81         O660   1.286       .  A
C82         C476   1.454       .  S
C83         C519   1.471       .  S
C84          C85   1.402       .  A
C84          C89   1.410       .  A
C84         C479   1.467       .  S
C85          C86   1.391   1_556  A
C85          H90   1.083       .  S
C86          C87   1.387       .  A
C86         C486   1.451       .  S
C87          C88   1.383   1_554  A
C87          H91   1.083       .  S
C88          C89   1.395       .  A
C88         C466   1.473       .  S
C89          H92   1.083       .  S
C93          C94   1.371   1_565  D
C93         C499   1.478       .  S
C93         C559   1.486       .  S
C94         C449   1.482       .  S
C94         C459   1.489       .  S
C95          C96   1.409       .  A
C95         C100   1.394       .  A
C95         C436   1.462       .  S
C96          C97   1.404       .  A
C96         H101   1.083       .  S
C97          C98   1.397       .  A
C97         C456   1.507       .  S
C98          C99   1.395       .  A
C98         H102   1.073       .  S
C99         C100   1.393       .  A
C99         C429   1.451       .  S
C100        H103   1.084       .  S
O104       Ni112   1.940       .  S
O104        C114   1.283       .  A
O105       Ni112   1.929       .  S
O105        C115   1.288       .  A
O106       Ni112   1.885       .  S
O106        C116   1.274       .  A
O107       Ni112   1.896       .  S
O107        C117   1.277       .  A
O108       Ni113   1.892       .  S
O108        C117   1.277       .  A
O109       Ni113   1.899       .  S
O109        C116   1.278       .  A
O110       Ni113   1.936       .  S
O110        C115   1.282       .  A
O111       Ni113   1.924       .  S
O111        C114   1.287       .  A
Ni112      Ni113   2.388       .  S
C114        C822   1.502       .  S
C115        C193   1.499       .  S
C116        C439   1.442       .  S
C117        C416   1.467       .  S
O118       Ni126   1.939       .  S
O118        C128   1.290       .  A
O119       Ni126   1.948       .  S
O119        C129   1.285       .  A
O120       Ni126   1.885       .  S
O120        C130   1.277       .  A
O121       Ni126   1.903       .  S
O121        C131   1.277       .  A
O122       Ni127   1.891       .  S
O122        C131   1.276       .  A
O123       Ni127   1.898       .  S
O123        C130   1.276       .  A
O124       Ni127   1.919       .  S
O124        C129   1.286       .  A
O125       Ni127   1.936       .  S
O125        C128   1.281       .  A
Ni126      Ni127   2.383       .  S
C128        C204   1.507       .  S
C129        C831   1.506       .  S
C130        C426   1.459       .  S
C131        C406   1.471       .  S
C132        C133   1.408       .  A
C132        C137   1.401       .  A
C132        C409   1.470       .  S
C133        C134   1.392   1_556  A
C133        H138   1.081       .  S
C134        C135   1.392       .  A
C134        C419   1.460       .  S
C135        C136   1.393       .  A
C135        H139   1.072       .  S
C136        C137   1.408   1_554  A
C136        C396   1.492       .  S
C137        H140   1.082       .  S
O141       Ni149   1.939       .  S
O141        C151   1.281       .  A
O142       Ni149   1.921       .  S
O142        C152   1.287       .  A
O143       Ni149   1.905       .  S
O143        C153   1.279       .  A
O144       Ni149   1.912       .  S
O144        C154   1.280       .  A
O145       Ni150   1.888       .  S
O145        C154   1.276       .  A
O146       Ni150   1.903       .  S
O146        C153   1.278       .  A
O147       Ni150   1.955       .  S
O147        C152   1.286       .  A
O148       Ni150   1.941       .  S
O148        C151   1.292       .  A
Ni149      Ni150   2.382       .  S
C151        C249   1.510       .  S
C152        C202   1.513       .  S
C153        C379   1.471       .  S
C154        C386   1.473       .  S
C155        C156   1.396   1_556  A
C155        C160   1.392       .  A
C155        C389   1.463       .  S
C156        C157   1.411       .  A
C156        H161   1.082       .  S
C157        C158   1.407       .  A
C157        C366   1.477       .  S
C158        C159   1.394   1_554  A
C158        H162   1.080       .  S
C159        C160   1.395       .  A
C159        C356   1.504       .  S
C160        H163   1.078       .  S
C164        C165   1.388       .  A
C164        C169   1.400       .  A
C164        C346   1.457       .  S
C165        C166   1.390       .  A
C165        H170   1.085       .  S
C166        C167   1.396       .  A
C166        C446   1.485       .  S
C167        C168   1.406       .  A
C167        H171   1.080       .  S
C168        C169   1.407       .  A
C168        C376   1.473       .  S
C169        H172   1.083       .  S
O173       Ni181   1.950       .  S
O173        C183   1.284       .  A
O174       Ni181   1.929       .  S
O174        C184   1.288       .  A
O175       Ni181   1.891       .  S
O175        C185   1.276       .  A
O176       Ni181   1.901       .  S
O176        C186   1.276       .  A
O177       Ni182   1.899       .  S
O177        C186   1.281       .  A
O178       Ni182   1.912       .  S
O178        C185   1.280       .  A
O179       Ni182   1.941       .  S
O179        C184   1.283       .  A
O180       Ni182   1.929       .  S
O180        C183   1.289       .  A
Ni181      Ni182   2.381       .  S
C183        C195   1.512       .  S
C184        C240   1.505       .  S
C185        C369   1.467       .  S
C186        C349   1.476       .  S
C187        C188   1.369       .  D
C187        C469   1.484       .  S
C187        C529   1.490       .  S
C188        C359   1.477       .  S
C188        C399   1.482       .  S
C189        C190   1.410   1_565  D
C189        C326   1.540       .  S
C189        C339   1.545   1_554  S
C190        C306   1.549   1_554  S
C190        C316   1.549       .  S
C191        C192   1.428       .  A
C191        C196   1.436       .  A
C191        C319   1.545       .  S
C192        C193   1.418       .  A
C192        H197   1.082       .  S
C193        C194   1.395       .  A
C194        C195   1.401       .  A
C194        H198   1.083       .  S
C195        C196   1.428       .  A
C196        H199   1.081       .  S
C200        C201   1.435       .  A
C200        C205   1.429       .  A
C200        C309   1.541       .  S
C201        C202   1.427       .  A
C201        H206   1.082       .  S
C202        C203   1.403       .  A
C203        C204   1.397       .  A
C203        H207   1.083       .  S
C204        C205   1.419       .  A
C205        H208   1.083       .  S
C209        C210   1.440       .  A
C209        C214   1.439       .  A
C209        C329   1.567       .  S
C210        C211   1.422       .  A
C210        H215   1.077       .  S
C211        C212   1.398       .  A
C212        C213   1.394       .  A
C212        H216   1.083       .  S
C213        C214   1.425       .  A
C214        H217   1.075       .  S
C218        C219   1.439       .  A
C218        C223   1.429       .  A
C218        C336   1.546       .  S
C219        C220   1.432       .  A
C219        H224   1.082       .  S
C220        C221   1.399       .  A
C221        C222   1.393       .  A
C221        H225   1.083       .  S
C222        C223   1.416       .  A
C223        H226   1.080       .  S
C227        C228   1.438       .  A
C227        C232   1.439       .  A
C227        C296   1.563       .  S
C228        C229   1.420       .  A
C228        H233   1.078       .  S
C229        C230   1.392       .  A
C230        C231   1.393       .  A
C230        H234   1.083       .  S
C231        C232   1.423       .  A
C231        C651   1.508       .  S
C232        H235   1.072       .  S
C236        C237   1.429       .  A
C236        C241   1.431       .  A
C236        C286   1.539       .  S
C237        C238   1.422       .  A
C237        H242   1.083       .  S
C238        C239   1.398       .  A
C238        C698   1.502   1_455  S
C239        C240   1.398       .  A
C239        H243   1.083       .  S
C240        C241   1.422       .  A
C241        H244   1.082       .  S
C245        C246   1.430       .  A
C245        C250   1.433       .  A
C245        C276   1.542       .  S
C246        C247   1.422       .  A
C246        H251   1.082   1_455  S
C247        C248   1.401       .  A
C247        C713   1.506   1_455  S
C248        C249   1.396       .  A
C248        H252   1.083       .  S
C249        C250   1.425       .  A
C250        H253   1.083       .  S
C254        C255   1.429       .  A
C254        C259   1.434       .  A
C254        C266   1.538       .  S
C255        C256   1.418       .  A
C255        H260   1.083       .  S
C256        C257   1.394       .  A
C257        C258   1.400       .  A
C257        H261   1.083       .  S
C258        C259   1.422       .  A
C258        C665   1.509   1_455  S
C259        H262   1.080       .  S
C263        C264   1.411       .  D
C263        C269   1.543       .  S
C263        C299   1.539       .  S
C264        C279   1.552       .  S
C264        C289   1.548       .  S
C265        C266   1.416       .  A
C265        C270   1.420       .  A
C265        H272   1.082       .  S
C266        C267   1.421       .  A
C267        C268   1.415       .  A
C267       Br274   1.918       .  S
C268        C269   1.413       .  A
C268        H273   1.079       .  S
C269        C270   1.422       .  A
C270       Br271   1.917       .  S
C275        C276   1.413       .  A
C275        C280   1.420       .  A
C275        H282   1.082       .  S
C276        C277   1.424       .  A
C277        C278   1.421       .  A
C277       Br284   1.919       .  S
C278        C279   1.415       .  A
C278        H283   1.082       .  S
C279        C280   1.425       .  A
C280       Br281   1.919       .  S
C285        C286   1.417       .  A
C285        C290   1.423       .  A
C285        H292   1.082       .  S
C286        C287   1.421       .  A
C287        C288   1.415       .  A
C287       Br294   1.920       .  S
C288        C289   1.411       .  A
C288        H293   1.073       .  S
C289        C290   1.420       .  A
C290       Br875   1.917   1_455  S
Br291       C874   1.917       .  S
C295        C296   1.424       .  A
C295        C300   1.417       .  A
C295        H302   1.078       .  S
C296        C297   1.437       .  A
C297        C298   1.422       .  A
C297       Br304   1.921   1_455  S
C298        C299   1.407       .  A
C298        H303   1.083       .  S
C299        C300   1.413       .  A
C300       Br301   1.920       .  S
C305        C306   1.415       .  A
C305        C310   1.423       .  A
C305        H312   1.082   1_545  S
C306        C307   1.423       .  A
C307        C308   1.418       .  A
C307       Br314   1.919       .  S
C308        C309   1.414       .  A
C308        H313   1.082       .  S
C309        C310   1.423       .  A
C310       Br311   1.917       .  S
C315        C316   1.411       .  A
C315        C320   1.417       .  A
C315        H322   1.079       .  S
C316        C317   1.421       .  A
C317        C318   1.423       .  A
C317       Br324   1.917       .  S
C318        C319   1.417       .  A
C318        H323   1.082       .  S
C319        C320   1.427       .  A
C320       Br321   1.921       .  S
C325        C326   1.406       .  A
C325        C330   1.422       .  A
C325        H332   1.084       .  S
C326        C327   1.412       .  A
C327        C328   1.421       .  A
C327       Br334   1.919       .  S
C328        C329   1.427       .  A
C328        H333   1.077       .  S
C329        C330   1.438       .  A
C330       Br331   1.922       .  S
C335        C336   1.417       .  A
C335        C340   1.426       .  A
C335        H342   1.083       .  S
C336        C337   1.428       .  A
C337        C338   1.415       .  A
C337       Br344   1.918       .  S
C338        C339   1.408       .  A
C338        H343   1.079       .  S
C339        C340   1.421       .  A
C340       Br341   1.915       .  S
C345        C346   1.398       .  A
C345        C350   1.397       .  A
C345        H352   1.083       .  S
C346        C347   1.409       .  A
C347        C348   1.385       .  A
C347       Br354   1.921       .  S
C348        C349   1.403       .  A
C348        H353   1.083       .  S
C349        C350   1.420       .  A
C350       Br351   1.921       .  S
C355        C356   1.414       .  A
C355        C360   1.390       .  A
C355        H362   1.075       .  S
C356        C357   1.429   1_556  A
C357        C358   1.387       .  A
C357       Br364   1.925       .  S
C358        C359   1.393   1_554  A
C358        H363   1.076       .  S
C359        C360   1.400       .  A
C360       Br361   1.915       .  S
C365        C366   1.402       .  A
C365        C370   1.382       .  A
C365        H372   1.081       .  S
C366        C367   1.411       .  A
C367        C368   1.399       .  A
C367       Br374   1.919       .  S
C368        C369   1.404       .  A
C368        H373   1.083       .  S
C369        C370   1.413       .  A
C370       Br371   1.926       .  S
C375        C376   1.401       .  A
C375        C380   1.391       .  A
C375        H382   1.081       .  S
C376        C377   1.406       .  A
C377        C378   1.396       .  A
C377       Br384   1.917       .  S
C378        C379   1.405       .  A
C378        H383   1.083       .  S
C379        C380   1.413       .  A
C380       Br381   1.924       .  S
C385        C386   1.404       .  A
C385        C390   1.389       .  A
C385        H392   1.084       .  S
C386        C387   1.417       .  A
C387        C388   1.396       .  A
C387       Br394   1.922       .  S
C388        C389   1.395       .  A
C388        H393   1.077       .  S
C389        C390   1.409       .  A
C390       Br391   1.922       .  S
C395        C396   1.414   1_556  A
C395        C984   1.388       .  A
C395        H402   1.080       .  S
C396        C397   1.420       .  A
C397        C398   1.391       .  A
C397       Br404   1.933       .  S
C398        C983   1.402   1_554  A
C398        H403   1.078       .  S
C399        C400   1.401       .  A
C399        C982   1.402   1_556  A
C400        C979   1.388   1_455  A
C400       Br401   1.912       .  S
C405        C406   1.414       .  A
C405        C410   1.401       .  A
C405        H412   1.083       .  S
C406        C407   1.412       .  A
C407        C408   1.377       .  A
C407       Br414   1.929       .  S
C408        C409   1.401       .  A
C408        H413   1.078       .  S
C409        C410   1.401       .  A
C410       Br411   1.918       .  S
C415        C416   1.402       .  A
C415        C420   1.391       .  A
C415        H422   1.084       .  S
C416        C417   1.417       .  A
C417        C418   1.391       .  A
C417       Br424   1.923       .  S
C418        C419   1.393       .  A
C418        H423   1.078       .  S
C419        C420   1.409       .  A
C420       Br421   1.913       .  S
C425        C426   1.399       .  A
C425        C430   1.381       .  A
C425        H432   1.084       .  S
C426        C427   1.418       .  A
C427        C428   1.394       .  A
C427      Br1018   1.922       .  S
C428        C429   1.395       .  A
C428       H1017   1.084       .  S
C429        C430   1.408       .  A
C430       Br431   1.922       .  S
H433       C1012   1.084       .  S
Br434      C1011   1.922   1_455  S
C435        C436   1.405       .  A
C435        C440   1.385       .  A
C435        H442   1.081       .  S
C436        C437   1.396       .  A
C437        C438   1.392       .  A
C437      Br1028   1.908       .  S
C438        C439   1.405       .  A
C438        H443   1.084       .  S
C439        C440   1.398       .  A
C440       Br441   1.918       .  S
Br444      C1021   1.908       .  S
C445        C446   1.405       .  A
C445        C450   1.386       .  A
C445        H452   1.083       .  S
C446        C447   1.424       .  A
C447        C448   1.397       .  A
C447       Br454   1.923       .  S
C448        C449   1.398       .  A
C448        H453   1.083       .  S
C449        C450   1.406       .  A
C450       Br451   1.916   1_545  S
C455        C456   1.420       .  A
C455        C460   1.395       .  A
C455        H462   1.076       .  S
C456        C457   1.420       .  A
C457        C458   1.395       .  A
C457       Br464   1.927       .  S
C458        C459   1.403       .  A
C458        H463   1.083       .  S
C459        C460   1.396       .  A
C460       Br461   1.918       .  S
C465        C466   1.407       .  A
C465       C1054   1.397       .  A
C465       H1056   1.083       .  S
C466        C467   1.408   1_556  A
C467        C468   1.385       .  A
C467       Br474   1.928       .  S
C468       C1053   1.402   1_554  A
C468        H473   1.075       .  S
C469        C470   1.405       .  A
C469       C1052   1.402   1_556  A
C470       C1049   1.397   1_455  A
C470       Br471   1.916       .  S
H472       C1049   1.083       .  S
C475        C476   1.394       .  A
C475        C480   1.374       .  A
C475        H482   1.084       .  S
C476        C477   1.406       .  A
C477        C478   1.398       .  A
C477       Br484   1.917       .  S
C478        C479   1.408       .  A
C478        H483   1.083       .  S
C479        C480   1.417       .  A
C480       Br481   1.923       .  S
C485        C486   1.397       .  A
C485        C490   1.395       .  A
C485        H492   1.084       .  S
C486        C487   1.411       .  A
C487        C488   1.376       .  A
C487       Br494   1.924       .  S
C488        C489   1.400       .  A
C488        H493   1.083       .  S
C489        C490   1.414       .  A
C490       Br491   1.913       .  S
C495        C496   1.407       .  A
C495        C500   1.385       .  A
C495        H502   1.082       .  S
C496        C497   1.433       .  A
C497        C498   1.394       .  A
C497       Br504   1.922       .  S
C498        C499   1.392       .  A
C498        H503   1.084       .  S
C499        C500   1.403       .  A
C500       Br501   1.914       .  S
C505        C506   1.393       .  A
C505        C510   1.394       .  A
C505        H512   1.080       .  S
C506        C507   1.420       .  A
C507        C508   1.381       .  A
C507       Br514   1.919       .  S
C508        C509   1.389       .  A
C508        H513   1.085       .  S
C509        C510   1.414       .  A
C510       Br511   1.918       .  S
C515        C516   1.408       .  A
C515        C520   1.401       .  A
C515       H1106   1.083       .  S
C516        C517   1.415       .  A
C517        C518   1.379       .  A
C517       Br524   1.922       .  S
C518        C519   1.401       .  A
C518        H523   1.083       .  S
C519        C520   1.410       .  A
C520      Br1105   1.917       .  S
Br521      C1104   1.917       .  S
H522       C1099   1.083       .  S
C525        C526   1.412   1_554  A
C525        C530   1.390       .  A
C525        H532   1.079       .  S
C526        C527   1.415       .  A
C527        C528   1.397       .  A
C527       Br534   1.928       .  S
C528        C529   1.402       .  A
C528        H533   1.079       .  S
C529        C530   1.408   1_556  A
C530       Br531   1.915       .  S
C535        C536   1.399       .  A
C535        C540   1.387       .  A
C535        H542   1.085       .  S
C536        C537   1.397       .  A
C537        C538   1.393       .  A
C537       Br544   1.916       .  S
C538        C539   1.412       .  A
C538        H543   1.084       .  S
C539        C540   1.393       .  A
C540       Br541   1.891       .  S
C545        C546   1.405       .  A
C545        C550   1.401       .  A
C545        H552   1.083       .  S
C546        C547   1.415       .  A
C547        C548   1.381       .  A
C547       Br554   1.927       .  S
C548        C549   1.400       .  A
C548        H553   1.083       .  S
C549        C550   1.413       .  A
C550       Br551   1.921       .  S
C555        C556   1.417       .  A
C555        C560   1.389       .  A
C555        H562   1.076       .  S
C556        C557   1.412       .  A
C557        C558   1.398       .  A
C557       Br564   1.918       .  S
C558        C559   1.407       .  A
C558        H563   1.083       .  S
C559        C560   1.395       .  A
C560       Br561   1.920       .  S
C565        C566   1.403       .  A
C565        C570   1.397       .  A
C565        H572   1.084       .  S
C566        C567   1.417       .  A
C567        C568   1.382       .  A
C567       Br574   1.927       .  S
C568        C569   1.400       .  A
C568        H573   1.083       .  S
C569        C570   1.416       .  A
C570       Br571   1.922       .  S
C575        C576   1.415       .  A
C575        C580   1.387       .  A
C575        H582   1.083       .  S
C576        C577   1.401       .  A
C577        C578   1.388       .  A
C577       Br584   1.903       .  S
C578        C579   1.400       .  A
C578        H583   1.084       .  S
C579        C580   1.392       .  A
C580       Br581   1.918       .  S
C585        C586   1.403       .  A
C585        C590   1.406       .  A
C585       C1150   1.474       .  S
C586        C587   1.399       .  A
C586        H591   1.083       .  S
C587        C588   1.401       .  A
C587       C1160   1.474       .  S
C588        C589   1.392       .  A
C588        H592   1.079       .  S
C589        C590   1.398       .  A
C589       C1140   1.496       .  S
C590        H593   1.085       .  S
O594       Ni602   1.937       .  S
O594        C604   1.281       .  A
O595       Ni602   1.924       .  S
O595        C605   1.287       .  A
O596       Ni602   1.896       .  S
O596        C606   1.281       .  A
O597       Ni602   1.909       .  S
O597        C607   1.278       .  A
O598       Ni603   1.889       .  S
O598        C607   1.279       .  A
O599       Ni603   1.898       .  S
O599        C606   1.275       .  A
O600       Ni603   1.947       .  S
O600        C605   1.284       .  A
O601       Ni603   1.928       .  S
O601        C604   1.288       .  A
Ni602      Ni603   2.381       .  S
C604        C813   1.502       .  S
C605        C795   1.509       .  S
C606       C1153   1.474       .  S
C607       C1133   1.474       .  S
O608       Ni616   1.925       .  S
O608        C618   1.288       .  A
O609       Ni616   1.939       .  S
O609        C619   1.282       .  A
O610       Ni616   1.891       .  S
O610        C620   1.278       .  A
O611       Ni616   1.892       .  S
O611        C621   1.273       .  A
O612       Ni617   1.900       .  S
O612        C621   1.279       .  A
O613       Ni617   1.892       .  S
O613        C620   1.273       .  A
O614       Ni617   1.925       .  S
O614        C619   1.288       .  A
O615       Ni617   1.938       .  S
O615        C618   1.282       .  A
Ni616      Ni617   2.393       .  S
C618        C840   1.499       .  S
C619        C806   1.499       .  S
C620       C1163   1.437       .  S
C621       C1120   1.443       .  S
C622        C623   1.391       .  A
C622        C627   1.392   1_556  A
C622       C1123   1.469       .  S
C623        C624   1.398       .  A
C623        H628   1.074       .  S
C624        C625   1.405   1_556  A
C624       C1110   1.500       .  S
C625        C626   1.404       .  A
C625        H629   1.082       .  S
C626        C627   1.403       .  A
C626       C1130   1.474       .  S
C627        H630   1.084       .  S
C631        C632   1.394       .  A
C631        C636   1.388   1_455  A
C631       C1090   1.463   1_455  S
C632        C633   1.405       .  A
C632        H637   1.082       .  S
C633        C634   1.405   1_455  A
C633       C1100   1.473       .  S
C634        C635   1.394       .  A
C634        H638   1.080       .  S
C635        C636   1.396       .  A
C635       C1080   1.494       .  S
C636        H639   1.082       .  S
O640       Ni648   1.945       .  S
O640        C650   1.284       .  A
O641       Ni648   1.925   1_455  S
O641        C651   1.288       .  A
O642       Ni648   1.870       .  S
O642        C652   1.275       .  A
O643       Ni648   1.890       .  S
O643        C653   1.275       .  A
O644       Ni649   1.895       .  S
O644        C653   1.278       .  A
O645       Ni649   1.900       .  S
O645        C652   1.277       .  A
O646       Ni649   1.945       .  S
O646        C651   1.283   1_655  A
O647       Ni649   1.935       .  S
O647        C650   1.289       .  A
Ni648      Ni649   2.385       .  S
C650        C797   1.510       .  S
C652       C1073   1.463       .  S
C653       C1093   1.452       .  S
O654       Ni662   1.933       .  S
O654        C664   1.291       .  A
O655       Ni662   1.952       .  S
O655        C665   1.285       .  A
O656       Ni662   1.892       .  S
O656        C666   1.273       .  A
O657       Ni662   1.884       .  S
O657        C667   1.278       .  A
O658       Ni663   1.912       .  S
O658        C667   1.278       .  A
O659       Ni663   1.889       .  S
O659        C666   1.281       .  A
O661       Ni663   1.947       .  S
O661        C664   1.283       .  A
Ni662      Ni663   2.383       .  S
C664        C804   1.515       .  S
C666       C1060   1.454       .  S
C667       C1103   1.471       .  S
C668        C669   1.402       .  A
C668        C673   1.410       .  A
C668       C1063   1.467       .  S
C669        C670   1.391   1_556  A
C669        H674   1.083       .  S
C670        C671   1.387       .  A
C670       C1070   1.451       .  S
C671        C672   1.383   1_554  A
C671        H675   1.083       .  S
C672        C673   1.395       .  A
C672       C1050   1.473       .  S
C673        H676   1.083       .  S
C677        C678   1.371   1_565  D
C677       C1083   1.478       .  S
C677       C1143   1.486       .  S
C678       C1033   1.482       .  S
C678       C1043   1.489       .  S
C679        C680   1.409   1_455  A
C679        C684   1.394       .  A
C679       C1020   1.462   1_455  S
C680        C681   1.404       .  A
C680        H685   1.083       .  S
C681        C682   1.397       .  A
C681       C1040   1.507       .  S
C682        C683   1.395       .  A
C682        H686   1.073       .  S
C683        C684   1.393   1_655  A
C683       C1013   1.451       .  S
C684        H687   1.084       .  S
O688       Ni696   1.940       .  S
O688        C698   1.283       .  A
O689       Ni696   1.929       .  S
O689        C699   1.288       .  A
O690       Ni696   1.885       .  S
O690        C700   1.274       .  A
O691       Ni696   1.896       .  S
O691        C701   1.277       .  A
O692       Ni697   1.892       .  S
O692        C701   1.277       .  A
O693       Ni697   1.899       .  S
O693        C700   1.278       .  A
O694       Ni697   1.936       .  S
O694        C699   1.282       .  A
O695       Ni697   1.924   1_455  S
O695        C698   1.287   1_455  A
Ni696      Ni697   2.388       .  S
C699        C777   1.499       .  S
C700       C1023   1.442       .  S
C701       C1000   1.467       .  S
O702       Ni710   1.939       .  S
O702        C712   1.290       .  A
O703       Ni710   1.948       .  S
O703        C713   1.285       .  A
O704       Ni710   1.885       .  S
O704        C714   1.277       .  A
O705       Ni710   1.903       .  S
O705        C715   1.277       .  A
O706       Ni711   1.891       .  S
O706        C715   1.276       .  A
O707       Ni711   1.898       .  S
O707        C714   1.276       .  A
O708       Ni711   1.919       .  S
O708        C713   1.286       .  A
O709       Ni711   1.936       .  S
O709        C712   1.281       .  A
Ni710      Ni711   2.383       .  S
C712        C788   1.507       .  S
C714       C1010   1.459       .  S
C715        C990   1.471       .  S
C716        C717   1.408       .  A
C716        C721   1.401       .  A
C716        C993   1.470       .  S
C717        C718   1.392   1_556  A
C717        H722   1.081       .  S
C718        C719   1.392       .  A
C718       C1003   1.460       .  S
C719        C720   1.393       .  A
C719        H723   1.072       .  S
C720        C721   1.408   1_554  A
C720        C980   1.492       .  S
C721        H724   1.082       .  S
O725       Ni733   1.939       .  S
O725        C735   1.281       .  A
O726       Ni733   1.921       .  S
O726        C736   1.287       .  A
O727       Ni733   1.905       .  S
O727        C737   1.279       .  A
O728       Ni733   1.912       .  S
O728        C738   1.280       .  A
O729       Ni734   1.888       .  S
O729        C738   1.276       .  A
O730       Ni734   1.903       .  S
O730        C737   1.278       .  A
O731       Ni734   1.955       .  S
O731        C736   1.286       .  A
O732       Ni734   1.941       .  S
O732        C735   1.292       .  A
Ni733      Ni734   2.382       .  S
C735        C833   1.510       .  S
C736        C786   1.513       .  S
C737        C963   1.471       .  S
C738        C970   1.473       .  S
C739        C740   1.396   1_556  A
C739        C744   1.392       .  A
C739        C973   1.463       .  S
C740        C741   1.411       .  A
C740        H745   1.082       .  S
C741        C742   1.407       .  A
C741        C950   1.477       .  S
C742        C743   1.394   1_554  A
C742        H746   1.080       .  S
C743        C744   1.395       .  A
C743        C940   1.504       .  S
C744        H747   1.078       .  S
C748        C749   1.388       .  A
C748        C753   1.400       .  A
C748        C930   1.457       .  S
C749        C750   1.390       .  A
C749        H754   1.085       .  S
C750        C751   1.396       .  A
C750       C1030   1.485       .  S
C751        C752   1.406       .  A
C751        H755   1.080       .  S
C752        C753   1.407       .  A
C752        C960   1.473       .  S
C753        H756   1.083       .  S
O757       Ni765   1.950       .  S
O757        C767   1.284       .  A
O758       Ni765   1.929       .  S
O758        C768   1.288       .  A
O759       Ni765   1.891       .  S
O759        C769   1.276       .  A
O760       Ni765   1.901       .  S
O760        C770   1.276       .  A
O761       Ni766   1.899       .  S
O761        C770   1.281       .  A
O762       Ni766   1.912       .  S
O762        C769   1.280       .  A
O763       Ni766   1.941       .  S
O763        C768   1.283       .  A
O764       Ni766   1.929       .  S
O764        C767   1.289       .  A
Ni765      Ni766   2.381       .  S
C767        C779   1.512       .  S
C768        C824   1.505       .  S
C769        C953   1.467       .  S
C770        C933   1.476       .  S
C771        C772   1.369       .  D
C771       C1053   1.484       .  S
C771       C1113   1.490       .  S
C772        C943   1.477       .  S
C772        C983   1.482       .  S
C773        C774   1.410   1_565  D
C773        C910   1.540       .  S
C773        C923   1.545   1_554  S
C774        C890   1.549   1_554  S
C774        C900   1.549       .  S
C775        C776   1.428       .  A
C775        C780   1.436       .  A
C775        C903   1.545       .  S
C776        C777   1.418       .  A
C776        H781   1.082       .  S
C777        C778   1.395       .  A
C778        C779   1.401       .  A
C778        H782   1.083       .  S
C779        C780   1.428       .  A
C780        H783   1.081       .  S
C784        C785   1.435       .  A
C784        C789   1.429       .  A
C784        C893   1.541       .  S
C785        C786   1.427       .  A
C785        H790   1.082       .  S
C786        C787   1.403       .  A
C787        C788   1.397       .  A
C787        H791   1.083       .  S
C788        C789   1.419       .  A
C789        H792   1.083       .  S
C793        C794   1.440       .  A
C793        C798   1.439       .  A
C793        C913   1.567       .  S
C794        C795   1.422       .  A
C794        H799   1.077       .  S
C795        C796   1.398       .  A
C796        C797   1.394       .  A
C796        H800   1.083       .  S
C797        C798   1.425       .  A
C798        H801   1.075       .  S
C802        C803   1.439       .  A
C802        C807   1.429       .  A
C802        C920   1.546       .  S
C803        C804   1.432       .  A
C803        H808   1.082       .  S
C804        C805   1.399       .  A
C805        C806   1.393       .  A
C805        H809   1.083       .  S
C806        C807   1.416       .  A
C807        H810   1.080       .  S
C811        C812   1.438       .  A
C811        C816   1.439       .  A
C811        C880   1.563       .  S
C812        C813   1.420       .  A
C812        H817   1.078       .  S
C813        C814   1.392       .  A
C814        C815   1.393       .  A
C814        H818   1.083       .  S
C815        C816   1.423       .  A
C816        H819   1.072       .  S
C820        C821   1.429       .  A
C820        C825   1.431       .  A
C820        C870   1.539       .  S
C821        C822   1.422       .  A
C821        H826   1.083       .  S
C822        C823   1.398       .  A
C823        C824   1.398       .  A
C823        H827   1.083       .  S
C824        C825   1.422       .  A
C825        H828   1.082       .  S
C829        C830   1.430       .  A
C829        C834   1.433       .  A
C829        C860   1.542       .  S
C830        C831   1.422       .  A
C830        H835   1.082       .  S
C831        C832   1.401       .  A
C832        C833   1.396       .  A
C832        H836   1.083       .  S
C833        C834   1.425       .  A
C834        H837   1.083       .  S
C838        C839   1.429       .  A
C838        C843   1.434       .  A
C838        C850   1.538       .  S
C839        C840   1.418       .  A
C839        H844   1.083       .  S
C840        C841   1.394       .  A
C841        C842   1.400       .  A
C841        H845   1.083       .  S
C842        C843   1.422       .  A
C843        H846   1.080       .  S
C847        C848   1.411       .  D
C847        C853   1.543       .  S
C847        C883   1.539       .  S
C848        C863   1.552       .  S
C848        C873   1.548       .  S
C849        C850   1.416       .  A
C849        C854   1.420       .  A
C849        H856   1.082       .  S
C850        C851   1.421       .  A
C851        C852   1.415       .  A
C851       Br858   1.918       .  S
C852        C853   1.413       .  A
C852        H857   1.079       .  S
C853        C854   1.422       .  A
C854       Br855   1.917       .  S
C859        C860   1.413       .  A
C859        C864   1.420       .  A
C859        H866   1.082       .  S
C860        C861   1.424       .  A
C861        C862   1.421       .  A
C861       Br868   1.919       .  S
C862        C863   1.415       .  A
C862        H867   1.082       .  S
C863        C864   1.425       .  A
C864       Br865   1.919       .  S
C869        C870   1.417       .  A
C869        C874   1.423       .  A
C869        H876   1.082       .  S
C870        C871   1.421       .  A
C871        C872   1.415       .  A
C871       Br878   1.920       .  S
C872        C873   1.411       .  A
C872        H877   1.073       .  S
C873        C874   1.420       .  A
C879        C880   1.424       .  A
C879        C884   1.417       .  A
C879        H886   1.078       .  S
C880        C881   1.437       .  A
C881        C882   1.422       .  A
C881       Br888   1.921       .  S
C882        C883   1.407       .  A
C882        H887   1.083       .  S
C883        C884   1.413       .  A
C884       Br885   1.920       .  S
C889        C890   1.415       .  A
C889        C894   1.423       .  A
C889        H896   1.082   1_545  S
C890        C891   1.423       .  A
C891        C892   1.418       .  A
C891       Br898   1.919       .  S
C892        C893   1.414       .  A
C892        H897   1.082       .  S
C893        C894   1.423       .  A
C894       Br895   1.917       .  S
C899        C900   1.411       .  A
C899        C904   1.417       .  A
C899        H906   1.079       .  S
C900        C901   1.421       .  A
C901        C902   1.423       .  A
C901       Br908   1.917       .  S
C902        C903   1.417       .  A
C902        H907   1.082       .  S
C903        C904   1.427       .  A
C904       Br905   1.921       .  S
C909        C910   1.406       .  A
C909        C914   1.422       .  A
C909        H916   1.084       .  S
C910        C911   1.412       .  A
C911        C912   1.421       .  A
C911       Br918   1.919       .  S
C912        C913   1.427       .  A
C912        H917   1.077       .  S
C913        C914   1.438       .  A
C914       Br915   1.922       .  S
C919        C920   1.417       .  A
C919        C924   1.426       .  A
C919        H926   1.083       .  S
C920        C921   1.428       .  A
C921        C922   1.415       .  A
C921       Br928   1.918       .  S
C922        C923   1.408       .  A
C922        H927   1.079       .  S
C923        C924   1.421       .  A
C924       Br925   1.915       .  S
C929        C930   1.398       .  A
C929        C934   1.397       .  A
C929        H936   1.083       .  S
C930        C931   1.409       .  A
C931        C932   1.385       .  A
C931       Br938   1.921       .  S
C932        C933   1.403       .  A
C932        H937   1.083       .  S
C933        C934   1.420       .  A
C934       Br935   1.921       .  S
C939        C940   1.414       .  A
C939        C944   1.390       .  A
C939        H946   1.075       .  S
C940        C941   1.429   1_556  A
C941        C942   1.387       .  A
C941       Br948   1.925       .  S
C942        C943   1.393   1_554  A
C942        H947   1.076       .  S
C943        C944   1.400       .  A
C944       Br945   1.915       .  S
C949        C950   1.402       .  A
C949        C954   1.382       .  A
C949        H956   1.081       .  S
C950        C951   1.411       .  A
C951        C952   1.399       .  A
C951       Br958   1.919       .  S
C952        C953   1.404       .  A
C952        H957   1.083       .  S
C953        C954   1.413       .  A
C954       Br955   1.926       .  S
C959        C960   1.401       .  A
C959        C964   1.391       .  A
C959        H966   1.081       .  S
C960        C961   1.406       .  A
C961        C962   1.396       .  A
C961       Br968   1.917       .  S
C962        C963   1.405       .  A
C962        H967   1.083       .  S
C963        C964   1.413       .  A
C964       Br965   1.924       .  S
C969        C970   1.404       .  A
C969        C974   1.389       .  A
C969        H976   1.084       .  S
C970        C971   1.417       .  A
C971        C972   1.396       .  A
C971       Br978   1.922       .  S
C972        C973   1.395       .  A
C972        H977   1.077       .  S
C973        C974   1.409       .  A
C974       Br975   1.922       .  S
C979        C980   1.414   1_556  A
C979        H986   1.080       .  S
C980        C981   1.420       .  A
C981        C982   1.391   1_655  A
C981       Br988   1.933       .  S
C982        H987   1.078       .  S
C983        C984   1.401       .  A
C984       Br985   1.912       .  S
C989        C990   1.414       .  A
C989        C994   1.401       .  A
C989        H996   1.083       .  S
C990        C991   1.412       .  A
C991        C992   1.377       .  A
C991       Br998   1.929       .  S
C992        C993   1.401       .  A
C992        H997   1.078       .  S
C993        C994   1.401       .  A
C994       Br995   1.918       .  S
C999       C1000   1.402       .  A
C999       C1004   1.391       .  A
C999       H1006   1.084       .  S
C1000      C1001   1.417       .  A
C1001      C1002   1.391       .  A
C1001     Br1008   1.923       .  S
C1002      C1003   1.393       .  A
C1002      H1007   1.078       .  S
C1003      C1004   1.409       .  A
C1004     Br1005   1.913       .  S
C1009      C1010   1.399       .  A
C1009      C1014   1.381       .  A
C1009      H1016   1.084       .  S
C1010      C1011   1.418       .  A
C1011      C1012   1.394   1_655  A
C1012      C1013   1.395   1_455  A
C1013      C1014   1.408       .  A
C1014     Br1015   1.922       .  S
C1019      C1020   1.405       .  A
C1019      C1024   1.385       .  A
C1019      H1026   1.081       .  S
C1020      C1021   1.396   1_655  A
C1021      C1022   1.392       .  A
C1022      C1023   1.405   1_455  A
C1022      H1027   1.084       .  S
C1023      C1024   1.398       .  A
C1024     Br1025   1.918       .  S
C1029      C1030   1.405       .  A
C1029      C1034   1.386       .  A
C1029      H1036   1.083       .  S
C1030      C1031   1.424       .  A
C1031      C1032   1.397       .  A
C1031     Br1038   1.923       .  S
C1032      C1033   1.398       .  A
C1032      H1037   1.083       .  S
C1033      C1034   1.406       .  A
C1034     Br1035   1.916   1_545  S
C1039      C1040   1.420       .  A
C1039      C1044   1.395       .  A
C1039      H1046   1.076       .  S
C1040      C1041   1.420       .  A
C1041      C1042   1.395       .  A
C1041     Br1048   1.927       .  S
C1042      C1043   1.403       .  A
C1042      H1047   1.083       .  S
C1043      C1044   1.396       .  A
C1044     Br1045   1.918       .  S
C1049      C1050   1.407       .  A
C1050      C1051   1.408   1_556  A
C1051      C1052   1.385   1_655  A
C1051     Br1058   1.928       .  S
C1052      H1057   1.075       .  S
C1053      C1054   1.405       .  A
C1054     Br1055   1.916       .  S
C1059      C1060   1.394       .  A
C1059      C1064   1.374       .  A
C1059      H1066   1.084       .  S
C1060      C1061   1.406       .  A
C1061      C1062   1.398       .  A
C1061     Br1068   1.917       .  S
C1062      C1063   1.408       .  A
C1062      H1067   1.083       .  S
C1063      C1064   1.417       .  A
C1064     Br1065   1.923       .  S
C1069      C1070   1.397       .  A
C1069      C1074   1.395       .  A
C1069      H1076   1.084       .  S
C1070      C1071   1.411       .  A
C1071      C1072   1.376       .  A
C1071     Br1078   1.924       .  S
C1072      C1073   1.400       .  A
C1072      H1077   1.083       .  S
C1073      C1074   1.414       .  A
C1074     Br1075   1.913       .  S
C1079      C1080   1.407       .  A
C1079      C1084   1.385       .  A
C1079      H1086   1.082       .  S
C1080      C1081   1.433       .  A
C1081      C1082   1.394       .  A
C1081     Br1088   1.922       .  S
C1082      C1083   1.392       .  A
C1082      H1087   1.084       .  S
C1083      C1084   1.403       .  A
C1084     Br1085   1.914       .  S
C1089      C1090   1.393   1_455  A
C1089      C1094   1.394       .  A
C1089      H1096   1.080       .  S
C1090      C1091   1.420       .  A
C1091      C1092   1.381       .  A
C1091     Br1098   1.919       .  S
C1092      C1093   1.389       .  A
C1092      H1097   1.085       .  S
C1093      C1094   1.414   1_655  A
C1094     Br1095   1.918       .  S
C1099      C1100   1.408       .  A
C1099      C1104   1.401       .  A
C1100      C1101   1.415   1_455  A
C1101      C1102   1.379       .  A
C1101     Br1108   1.922       .  S
C1102      C1103   1.401       .  A
C1102      H1107   1.083       .  S
C1103      C1104   1.410   1_655  A
C1109      C1110   1.412   1_554  A
C1109      C1114   1.390       .  A
C1109      H1116   1.079       .  S
C1110      C1111   1.415       .  A
C1111      C1112   1.397       .  A
C1111     Br1118   1.928       .  S
C1112      C1113   1.402       .  A
C1112      H1117   1.079       .  S
C1113      C1114   1.408   1_556  A
C1114     Br1115   1.915       .  S
C1119      C1120   1.399       .  A
C1119      C1124   1.387       .  A
C1119      H1126   1.085       .  S
C1120      C1121   1.397       .  A
C1121      C1122   1.393       .  A
C1121     Br1128   1.916       .  S
C1122      C1123   1.412       .  A
C1122      H1127   1.084       .  S
C1123      C1124   1.393       .  A
C1124     Br1125   1.891       .  S
C1129      C1130   1.405       .  A
C1129      C1134   1.401       .  A
C1129      H1136   1.083       .  S
C1130      C1131   1.415       .  A
C1131      C1132   1.381       .  A
C1131     Br1138   1.927       .  S
C1132      C1133   1.400       .  A
C1132      H1137   1.083       .  S
C1133      C1134   1.413       .  A
C1134     Br1135   1.921       .  S
C1139      C1140   1.417       .  A
C1139      C1144   1.389       .  A
C1139      H1146   1.076       .  S
C1140      C1141   1.412       .  A
C1141      C1142   1.398       .  A
C1141     Br1148   1.918       .  S
C1142      C1143   1.407       .  A
C1142      H1147   1.083       .  S
C1143      C1144   1.395       .  A
C1144     Br1145   1.920       .  S
C1149      C1150   1.403       .  A
C1149      C1154   1.397       .  A
C1149      H1156   1.084       .  S
C1150      C1151   1.417       .  A
C1151      C1152   1.382       .  A
C1151     Br1158   1.927       .  S
C1152      C1153   1.400       .  A
C1152      H1157   1.083       .  S
C1153      C1154   1.416       .  A
C1154     Br1155   1.922       .  S
C1159      C1160   1.415       .  A
C1159      C1164   1.387       .  A
C1159      H1166   1.083       .  S
C1160      C1161   1.401       .  A
C1161      C1162   1.388       .  A
C1161     Br1168   1.903       .  S
C1162      C1163   1.400       .  A
C1162      H1167   1.084       .  S
C1163      C1164   1.392       .  A
C1164     Br1165   1.918       .  S
