geometry optimzed in LAMMPS
_audit_creation_date              2020-11-30 
_audit_creation_method            'lammps2cif' 
_symmetry_space_group_name_H-M    'P1' 
_symmetry_Int_Tables_number       1 
_symmetry_cell_setting            triclinic 
loop_ 
_symmetry_equiv_pos_as_xyz 
  x,y,z 
_cell_length_a                    41.34507153 
_cell_length_b                    24.06507565853788 
_cell_length_c                    33.35691602775513 
_cell_angle_alpha                 90.2724664498105 
_cell_angle_beta                  90.16690551035066 
_cell_angle_gamma                 89.83158752734965 
loop_ 
_atom_site_label 
_atom_site_type_symbol 
_atom_site_fract_x 
_atom_site_fract_y 
_atom_site_fract_z 
_atom_site_charge 
O1          O  0.64049900  0.25827026  0.38604096    -0.75600
C2          C  0.55820018  0.37357937  0.37860568     0.85400
O3          O  0.62946900  0.30660824  0.24778528    -0.76700
O4          O  0.60236144  0.48461545  0.29567780    -0.78200
O5          O  0.68616025  0.44711608  0.39985863    -0.78000
O6          O  0.68668099  0.30249846  0.40019332    -0.76700
Zn7        Zn  0.61585477  0.30713272  0.34740418     1.55700
O8          O  0.64028955  0.49297470  0.38594137    -0.78000
Cd9        Cd  0.68354793  0.37431355  0.36426629     1.59700
Cd10       Cd  0.65005123  0.37333184  0.27565033     1.59600
O11         O  0.72244707  0.37430339  0.32316815    -0.78000
O12         O  0.64110296  0.37316791  0.33441298    -1.88500
Cd13       Cd  0.61508392  0.44139841  0.34719028     1.59900
O14         O  0.69855481  0.37391718  0.26298369    -0.78000
O15         O  0.57136657  0.42049943  0.37268097    -0.76700
C16         C  0.61114164  0.26849305  0.26054365     0.85900
C17         C  0.66751904  0.26124816  0.40438712     0.85500
O18         O  0.57265433  0.32790953  0.37133762    -0.75600
C19         C  0.66736602  0.48913628  0.40408453     0.86400
O20         O  0.60437262  0.26303031  0.29749494    -0.75700
C21         C  0.72376797  0.37428702  0.28482325     0.86500
C22         C  0.60960033  0.47731293  0.25896153     0.86800
O23         O  0.62845346  0.43889726  0.24726510    -0.78100
C24         C  0.58953019  0.12445937  0.10688037     0.89300
C25         C  0.59466760  0.07297930  0.13354575    -0.50900
C26         C  0.57676916  0.07345332  0.16773073     0.12300
C27         C  0.55445079  0.12383104  0.17190055     0.23200
C28         C  0.55283954  0.12578720  0.09857524    -0.51600
C29         C  0.53473175  0.12552597  0.13271560     0.12400
C30         C  0.59548257  0.17420401  0.13520743    -0.51100
C31         C  0.57758822  0.17298456  0.16934920     0.12900
H32         H  0.61311628  0.04171806  0.12773926     0.17500
H33         H  0.53962743  0.12359289  0.19966366     0.03200
H34         H  0.54175680  0.12697378  0.06912889     0.17800
H35         H  0.61432235  0.20483344  0.13035172     0.17600
C36         C  0.68556303  0.12535875  0.47641018     0.00400
O37         O  0.85593037  0.24194866  0.13554691    -0.75600
C38         C  0.93837393  0.12353736  0.13056028     0.85400
O39         O  0.87018613  0.19344965  0.49841825    -0.76700
O40         O  0.89253550  0.01253625  0.04550590    -0.78200
O41         O  0.80919959  0.05408461  0.14785622    -0.78000
O42         O  0.80904980  0.19873891  0.14709240    -0.76700
Zn43       Zn  0.88169114  0.19179482  0.09861977     1.55700
O44         O  0.85506085  0.00731237  0.13568316    -0.78000
Cd45       Cd  0.81312981  0.12598575  0.11213165     1.59700
Cd46       Cd  0.84836883  0.12777499  0.02514073     1.59600
O47         O  0.77540791  0.12548680  0.06946257    -0.78000
O48         O  0.85618422  0.12647424  0.08412445    -1.88500
Cd49       Cd  0.88111402  0.05724618  0.09705275     1.59900
O50         O  0.80047105  0.12847312  0.01028206    -0.78000
O51         O  0.92523439  0.07698536  0.12269728    -0.76700
C52         C  0.88897570  0.23057812  0.01227335     0.85900
C53         C  0.82818054  0.23991930  0.15204455     0.85500
O54         O  0.92402820  0.16963427  0.12453571    -0.75600
C55         C  0.82766826  0.01186879  0.15285342     0.86400
O56         O  0.89521449  0.23537137  0.04949691    -0.75700
C57         C  0.77490637  0.12683800  0.03112817     0.86500
C58         C  0.88599602  0.02098871  0.00871052     0.86800
O59         O  0.86879431  0.06140238  0.49688352    -0.78100
C60         C  0.90461976  0.36709544  0.35758228     0.89300
C61         C  0.89704866  0.41807495  0.38415889    -0.50900
C62         C  0.91616483  0.42214791  0.41736212     0.12300
C63         C  0.94139587  0.37610111  0.42116460     0.23200
C64         C  0.94088885  0.37155806  0.34803408    -0.51600
C65         C  0.95993504  0.37633808  0.38130695     0.12400
C66         C  0.90212523  0.31776812  0.38705216    -0.51100
C67         C  0.92108508  0.32330341  0.42027001     0.12900
H68         H  0.87673345  0.44584481  0.37878215     0.17500
H69         H  0.95695654  0.37991432  0.44828519     0.03200
H70         H  0.95054868  0.37097173  0.31778659     0.17800
H71         H  0.88465492  0.28449690  0.38516845     0.17600
C72         C  0.81090981  0.37591173  0.22458289     0.00400
O73         O  0.42316504  0.17122876  0.15587515    -0.75600
C74         C  0.32812447  0.23707340  0.12255003     0.85400
O75         O  0.36668843  0.19066527  0.27948059    -0.76700
O76         O  0.27353177  0.12394838  0.20400002    -0.78200
O77         O  0.35586594  0.00543422  0.14073892    -0.78000
O78         O  0.42458098  0.07864464  0.15392230    -0.76700
Zn79       Zn  0.37984320  0.19151855  0.17972824     1.55700
O80         O  0.30975477  0.05089789  0.12736708    -0.78000
Cd81       Cd  0.38104825  0.05709839  0.17947187     1.59700
Cd82       Cd  0.34599316  0.12416962  0.25136913     1.59600
O83         O  0.39416264  0.01359634  0.23075088    -0.78000
O84         O  0.35485663  0.12506326  0.19257272    -1.88500
Cd85       Cd  0.31237909  0.12384957  0.16279996     1.59900
O86         O  0.36775688  0.05840346  0.27933107    -0.78000
O87         O  0.30912184  0.19558600  0.12670255    -0.76700
C88         C  0.38471719  0.22926757  0.26680717     0.85900
C89         C  0.43768422  0.12569243  0.14835290     0.85500
O90         O  0.35508380  0.24035700  0.14103050    -0.75600
C91         C  0.32864364  0.00904832  0.12290543     0.86400
O92         O  0.39118791  0.23537297  0.22982150    -0.75700
C93         C  0.38682974  0.02039997  0.26748790     0.86500
C94         C  0.27219861  0.12357884  0.24234500     0.86800
O95         O  0.29743265  0.12344848  0.26417797    -0.78100
C96         C  0.40624656  0.37413543  0.42010494     0.89300
C97         C  0.40035749  0.32410495  0.39203994    -0.50900
C98         C  0.41836079  0.32487853  0.35797634     0.12300
C99         C  0.44153413  0.37397645  0.35522827     0.23200
C100        C  0.44293955  0.37292692  0.42856217    -0.51600
C101        C  0.46115255  0.37283334  0.39449120     0.12400
C102        C  0.40121635  0.42532372  0.39308754    -0.51100
C103        C  0.41923923  0.42442138  0.35898398     0.12900
H104        H  0.38144457  0.29363012  0.39696342     0.17500
H105        H  0.45643454  0.37387409  0.32752580     0.03200
H106        H  0.45394798  0.37235638  0.45806125     0.17800
H107        H  0.38280123  0.45672736  0.39863841     0.17600
C108        C  0.30997083  0.37305879  0.05048155     0.00400
O109        O  0.14017432  0.49299298  0.39240544    -0.75600
C110        C  0.05695213  0.37989339  0.39619010     0.85400
O111        O  0.12637706  0.44002845  0.03068843    -0.76700
O112        O  0.09900740  0.26539099  0.47707383    -0.78200
O113        O  0.18645013  0.30269148  0.37986957    -0.78000
O114        O  0.18625131  0.44747214  0.37926243    -0.76700
Zn115      Zn  0.11450525  0.44451365  0.43045079     1.55700
O116        O  0.13964973  0.25834101  0.38978667    -0.78000
Cd117      Cd  0.18226965  0.37574826  0.41491544     1.59700
Cd118      Cd  0.14686314  0.37419672  0.00185085     1.59600
O119        O  0.21990396  0.37579936  0.45774153    -0.78000
O120        O  0.13914844  0.37720413  0.44277776    -1.88500
Cd121      Cd  0.11335129  0.31002616  0.42725988     1.59900
O122        O  0.19483834  0.37255364  0.01689421    -0.78000
O123        O  0.07037186  0.33265197  0.40033904    -0.76700
C124        C  0.10939220  0.48036819  0.01834497     0.85900
C125        C  0.16744279  0.48933294  0.37474091     0.85500
O126        O  0.07108402  0.42506334  0.40566453    -0.75600
C127        C  0.16765238  0.26120995  0.37410489     0.86400
O128        O  0.10343469  0.48815398  0.48118897    -0.75700
C129        C  0.22039004  0.37402296  0.49606867     0.86500
C130        C  0.10566480  0.27090121  0.01421675     0.86800
O131        O  0.12456399  0.30807115  0.02750828    -0.78100
C132        C  0.09089484  0.13443844  0.16913987     0.89300
C133        C  0.09370955  0.18355629  0.13955022    -0.50900
C134        C  0.07449520  0.17840660  0.10654314     0.12300
C135        C  0.05374435  0.12619771  0.10581490     0.23200
C136        C  0.05461416  0.13112205  0.17893545    -0.51600
C137        C  0.03537340  0.12688104  0.14578668     0.12400
C138        C  0.09785287  0.08312776  0.14259140    -0.51100
C139        C  0.07859941  0.07945297  0.10944932     0.12900
H140        H  0.11137926  0.21652008  0.14128333     0.17500
H141        H  0.03802959  0.12277768  0.07880321     0.03200
H142        H  0.04507856  0.13240976  0.20923494     0.17800
H143        H  0.11800473  0.05496530  0.14783392     0.17600
C144        C  0.18476555  0.12468947  0.30219044     0.00400
C145        C  0.13437104  0.17955532  0.21438614    -0.10500
C146        C  0.11276636  0.13575905  0.20614289     0.11700
C147        C  0.11284611  0.08986666  0.23212339    -0.10500
C148        C  0.13507203  0.08611243  0.26370739    -0.10500
C149        C  0.15804699  0.12848379  0.27039054     0.11700
C150        C  0.15675927  0.17559351  0.24556459    -0.10500
H151        H  0.13495563  0.21699449  0.19692740     0.15600
H152        H  0.09626408  0.05575984  0.22705981     0.15600
H153        H  0.13459877  0.04909539  0.28191259     0.15600
H154        H  0.17368243  0.20937579  0.25000854     0.15600
C155        C  0.17793947  0.21520501  0.34914397    -0.10400
C156        C  0.18287561  0.17438491  0.32855338    -0.12000
C157        C  0.18200140  0.07451104  0.32774721    -0.10400
C158        C  0.17696752  0.03454352  0.34889533    -0.12000
C159        C  0.09084810  0.23541037  0.04286078    -0.10400
C160        C  0.08098069  0.20963841  0.07099308    -0.12000
C161        C  0.08683409  0.04445161  0.07593196    -0.10400
C162        C  0.09618753  0.01704230  0.04798582    -0.12000
C163        C  0.27662379  0.37331097  0.03436944    -0.10400
C164        C  0.25085974  0.37361889  0.01709925    -0.12000
C165        C  0.39193132  0.37222527  0.49575213    -0.10500
C166        C  0.38264665  0.37408982  0.45511850     0.11700
C167        C  0.34949164  0.37552699  0.44596167    -0.10500
C168        C  0.32625378  0.37514510  0.47592894    -0.10500
C169        C  0.33522267  0.37326370  0.01676552     0.11700
C170        C  0.36855383  0.37187708  0.02605004    -0.10500
H171        H  0.41702696  0.37090559  0.50460878     0.15600
H172        H  0.34143289  0.37690084  0.41502949     0.15600
H173        H  0.30132679  0.37647538  0.46628340     0.15600
H174        H  0.37642289  0.37047899  0.05703417     0.15600
C175        C  0.24130120  0.12336440  0.26241591    -0.10400
C176        C  0.21628186  0.12353830  0.28126919    -0.12000
C177        C  0.31416216  0.32268873  0.07543727    -0.10400
C178        C  0.31920049  0.28240173  0.09633598    -0.12000
C179        C  0.31418209  0.42315762  0.07594506    -0.10400
C180        C  0.31931775  0.46353891  0.09690499    -0.12000
C181        C  0.41105417  0.45853686  0.32512837    -0.10400
C182        C  0.40098464  0.48526660  0.29732128    -0.12000
C183        C  0.40957589  0.29198828  0.32362156    -0.10400
C184        C  0.39898688  0.26542948  0.29594888    -0.12000
C185        C  0.02370550  0.38160849  0.38373473    -0.10400
C186        C  0.99471110  0.38020563  0.37979157    -0.12000
C187        C  0.88254754  0.41163930  0.29471071    -0.10500
C188        C  0.88294649  0.36548889  0.32045704     0.11700
C189        C  0.86176354  0.32121906  0.31193604    -0.10500
C190        C  0.83939745  0.32495287  0.28074302    -0.10500
C191        C  0.83770413  0.37236053  0.25623988     0.11700
C192        C  0.86032019  0.41520658  0.26314103    -0.10500
H193        H  0.89883308  0.44610518  0.29999612     0.15600
H194        H  0.86149107  0.28358797  0.32920610     0.15600
H195        H  0.82276722  0.29079722  0.27607718     0.15600
H196        H  0.86049113  0.45242781  0.24514077     0.15600
C197        C  0.81297102  0.42666867  0.19956285    -0.10400
C198        C  0.81769433  0.46699175  0.17868264    -0.12000
C199        C  0.81847196  0.28628402  0.17697507    -0.10400
C200        C  0.81333759  0.32682220  0.19775112    -0.12000
C201        C  0.89866724  0.48466906  0.47858338    -0.10400
C202        C  0.90784196  0.45731034  0.45060950    -0.12000
C203        C  0.91424443  0.29226850  0.45591652    -0.10400
C204        C  0.90405898  0.26641423  0.48390390    -0.12000
C205        C  0.97155297  0.12419189  0.14333889    -0.10400
C206        C  0.00054189  0.12503946  0.14743482    -0.12000
C207        C  0.71892856  0.12575967  0.99254278    -0.10400
C208        C  0.74456915  0.12630485  0.01002648    -0.12000
C209        C  0.47094067  0.12716029  0.13639620    -0.10400
C210        C  0.49989671  0.12687181  0.13239143    -0.12000
C211        C  0.62707414  0.12609078  0.00080984    -0.10500
C212        C  0.66041058  0.12525155  0.01007729     0.11700
C213        C  0.66935180  0.12406858  0.05096097    -0.10500
C214        C  0.64616902  0.12381058  0.08094048    -0.10500
C215        C  0.61301840  0.12476389  0.07181476     0.11700
C216        C  0.60365859  0.12594398  0.03119338    -0.10500
H217        H  0.61909493  0.12689347  0.46984957     0.15600
H218        H  0.69427526  0.12315753  0.06062557     0.15600
H219        H  0.65427084  0.12283764  0.11186632     0.15600
H220        H  0.57854441  0.12668198  0.02238143     0.15600
C221        C  0.77948993  0.37559553  0.24564456    -0.10400
C222        C  0.75460370  0.37492908  0.26470855    -0.12000
C223        C  0.68157981  0.07504825  0.45111560    -0.10400
C224        C  0.67660669  0.03459178  0.43017426    -0.12000
C225        C  0.68127279  0.17550212  0.45133556    -0.10400
C226        C  0.67632132  0.21581920  0.43048719    -0.12000
C227        C  0.59551833  0.01234467  0.22902457    -0.10400
C228        C  0.58526438  0.03915368  0.20136519    -0.12000
C229        C  0.58632631  0.20567766  0.20380394    -0.10400
C230        C  0.59687058  0.23220414  0.23150834    -0.12000
C231        C  0.52496386  0.37228223  0.39074004    -0.10400
C232        C  0.49601132  0.37215277  0.39489217    -0.12000
O233        O  0.64058019  0.25830987  0.88600312    -0.75600
C234        C  0.55827423  0.37361611  0.87856641     0.85400
O235        O  0.62949565  0.30667975  0.74773886    -0.76700
O236        O  0.60242481  0.48468225  0.79567532    -0.78200
O237        O  0.68625334  0.44716408  0.89980153    -0.78000
O238        O  0.68676133  0.30254006  0.90015115    -0.76700
Zn239      Zn  0.61593338  0.30718135  0.84737221     1.55700
O240        O  0.64037103  0.49301013  0.88592222    -0.78000
Cd241      Cd  0.68362310  0.37435262  0.86421658     1.59700
Cd242      Cd  0.65010106  0.37339788  0.77559846     1.59600
O243        O  0.72250701  0.37431436  0.82310419    -0.78000
O244        O  0.64117464  0.37321871  0.83437011    -1.88500
Cd245      Cd  0.61515943  0.44144542  0.84716962     1.59900
O246        O  0.69860796  0.37396531  0.76292152    -0.78000
O247        O  0.57143852  0.42053966  0.87264849    -0.76700
C248        C  0.61117413  0.26856419  0.76051247     0.85900
C249        C  0.66760059  0.26128834  0.90434838     0.85500
O250        O  0.57273454  0.32795082  0.87130496    -0.75600
C251        C  0.66745637  0.48917783  0.90404544     0.86400
O252        O  0.60443215  0.26309249  0.79746999    -0.75700
C253        C  0.72382348  0.37430608  0.78475959     0.86500
C254        C  0.60963978  0.47738923  0.75895162     0.86800
O255        O  0.62848743  0.43897696  0.74723180    -0.78100
C256        C  0.58944856  0.12450997  0.60690508     0.89300
C257        C  0.59459429  0.07303968  0.63357523    -0.50900
C258        C  0.57671018  0.07352263  0.66776979     0.12300
C259        C  0.55438994  0.12390070  0.67194231     0.23200
C260        C  0.55275630  0.12583048  0.59861446    -0.51600
C261        C  0.53465751  0.12557808  0.63276367     0.12400
C262        C  0.59540662  0.17426575  0.63521764    -0.51100
C263        C  0.57752545  0.17305807  0.66936904     0.12900
H264        H  0.61304239  0.04177859  0.62776469     0.17500
H265        H  0.53957581  0.12367018  0.69971290     0.03200
H266        H  0.54166746  0.12700107  0.56917100     0.17800
H267        H  0.61424551  0.20489227  0.63034724     0.17600
C268        C  0.68564574  0.12539698  0.97637867     0.00400
O269        O  0.85593358  0.24193837  0.63544624    -0.75600
C270        C  0.93835800  0.12352734  0.63044384     0.85400
O271        O  0.87022715  0.19352968  0.99852482    -0.76700
O272        O  0.89248577  0.01248866  0.54543648    -0.78200
O273        O  0.80920188  0.05407512  0.64782628    -0.78000
O274        O  0.80906120  0.19873755  0.64705385    -0.76700
Zn275      Zn  0.88166684  0.19176057  0.59851431     1.55700
O276        O  0.85506413  0.00731735  0.63563120    -0.78000
Cd277      Cd  0.81311250  0.12597372  0.61208961     1.59700
Cd278      Cd  0.84831182  0.12771835  0.52506036     1.59600
O279        O  0.77536979  0.12546808  0.56944641    -0.78000
O280        O  0.85615065  0.12644471  0.58404268    -1.88500
Cd281      Cd  0.88109106  0.05723094  0.59697162     1.59900
O282        O  0.80040130  0.12843424  0.51024283    -0.78000
O283        O  0.92522110  0.07697279  0.62258509    -0.76700
C284        C  0.88894649  0.23048794  0.51215998     0.85900
C285        C  0.82819853  0.23991600  0.65198030     0.85500
O286        O  0.92400763  0.16961884  0.62442030    -0.75600
C287        C  0.82767964  0.01186900  0.65281917     0.86400
O288        O  0.89518538  0.23529383  0.54938151    -0.75700
C289        C  0.77484730  0.12680772  0.53111167     0.86500
C290        C  0.88592605  0.02090640  0.50864317     0.86800
O291        O  0.86887370  0.06149741  0.99695630    -0.78100
C292        C  0.90462695  0.36717111  0.85764269     0.89300
C293        C  0.89708248  0.41818349  0.88420135    -0.50900
C294        C  0.91620060  0.42224538  0.91740604     0.12300
C295        C  0.94140304  0.37615813  0.92122729     0.23200
C296        C  0.94089937  0.37156606  0.84809976    -0.51600
C297        C  0.95994414  0.37633591  0.88137338     0.12400
C298        C  0.90209738  0.31787227  0.88713543    -0.51100
C299        C  0.92106126  0.32339754  0.92035263     0.12900
H300        H  0.87678225  0.44598141  0.87881477     0.17500
H301        H  0.95696456  0.37996525  0.94834791     0.03200
H302        H  0.95056235  0.37094889  0.81785385     0.17800
H303        H  0.88460030  0.28464033  0.88526450     0.17600
C304        C  0.81097983  0.37590144  0.72455830     0.00400
O305        O  0.42307580  0.17123869  0.65589428    -0.75600
C306        C  0.32802046  0.23707197  0.62259853     0.85400
O307        O  0.36664658  0.19069896  0.77951340    -0.76700
O308        O  0.27345794  0.12393441  0.70407645    -0.78200
O309        O  0.35578260  0.00544918  0.64078857    -0.78000
O310        O  0.42450167  0.07865701  0.65396299    -0.76700
Zn311      Zn  0.37975408  0.19151706  0.67974885     1.55700
O312        O  0.30966380  0.05089843  0.62743171    -0.78000
Cd313      Cd  0.38096646  0.05711900  0.67951109     1.59700
Cd314      Cd  0.34592867  0.12419258  0.75142811     1.59600
O315        O  0.39409490  0.01362852  0.73078032    -0.78000
O316        O  0.35477239  0.12507314  0.69262328    -1.88500
Cd317      Cd  0.31228995  0.12385212  0.66286269     1.59900
O318        O  0.36770894  0.05842494  0.77938307    -0.78000
O319        O  0.30901381  0.19559257  0.62676690    -0.76700
C320        C  0.38467113  0.22929107  0.76681139     0.85900
C321        C  0.43760215  0.12570517  0.64838742     0.85500
O322        O  0.35498731  0.24034648  0.64106104    -0.75600
C323        C  0.32855661  0.00905516  0.62296380     0.86400
O324        O  0.39111624  0.23538074  0.72981878    -0.75700
C325        C  0.38678177  0.02042946  0.76752249     0.86500
C326        C  0.27212943  0.12358108  0.74242111     0.86800
O327        O  0.29736580  0.12347467  0.76425214    -0.78100
C328        C  0.40632105  0.37412854  0.92006370     0.89300
C329        C  0.40041963  0.32411620  0.89198957    -0.50900
C330        C  0.41841144  0.32490109  0.85791876     0.12300
C331        C  0.44158959  0.37399550  0.85517195     0.23200
C332        C  0.44301515  0.37290330  0.92850734    -0.51600
C333        C  0.46121976  0.37282602  0.89442840     0.12400
C334        C  0.40129082  0.42533437  0.89306704    -0.51100
C335        C  0.41929996  0.42444629  0.85895451     0.12900
H336        H  0.38150481  0.29364467  0.89691376     0.17500
H337        H  0.45648132  0.37390521  0.82746244     0.03200
H338        H  0.45402914  0.37231855  0.95800326     0.17800
H339        H  0.38287894  0.45673812  0.89863468     0.17600
C340        C  0.30989488  0.37306968  0.55053286     0.00400
O341        O  0.14013374  0.49299139  0.89248657    -0.75600
C342        C  0.05695371  0.37985332  0.89628913     0.85400
O343        O  0.12631896  0.44002676  0.53060548    -0.76700
O344        O  0.09903677  0.26538091  0.97716789    -0.78200
O345        O  0.18641941  0.30270558  0.87987967    -0.78000
O346        O  0.18620701  0.44749167  0.87928810    -0.76700
Zn347      Zn  0.11449823  0.44448679  0.93054275     1.55700
O348        O  0.13963366  0.25833927  0.88986111    -0.78000
Cd349      Cd  0.18226329  0.37575554  0.91494296     1.59700
Cd350      Cd  0.14681749  0.37420760  0.50178144     1.59600
O351        O  0.21992733  0.37579577  0.95773530    -0.78000
O352        O  0.13916118  0.37719434  0.94285175    -1.88500
Cd353      Cd  0.11336007  0.31001537  0.92735238     1.59900
O354        O  0.19477711  0.37258412  0.51687516    -0.78000
O355        O  0.07037563  0.33261640  0.90044364    -0.76700
C356        C  0.10936557  0.48039715  0.51825225     0.85900
C357        C  0.16738806  0.48934467  0.87478895     0.85500
O358        O  0.07108087  0.42502617  0.90576323    -0.75600
C359        C  0.16761984  0.26121937  0.87413935     0.86400
O360        O  0.10343059  0.48810127  0.98128705    -0.75700
C361        C  0.22043894  0.37400102  0.99606238     0.86500
C362        C  0.10562625  0.27091110  0.51412612     0.86800
O363        O  0.12451973  0.30808246  0.52742466    -0.78100
C364        C  0.09087261  0.13444627  0.66906683     0.89300
C365        C  0.09369348  0.18356549  0.63947680    -0.50900
C366        C  0.07448208  0.17841669  0.60646504     0.12300
C367        C  0.05373102  0.12621046  0.60573230     0.23200
C368        C  0.05458931  0.13113390  0.67885154    -0.51600
C369        C  0.03535435  0.12689398  0.64569786     0.12400
C370        C  0.09783304  0.08313527  0.64251819    -0.51100
C371        C  0.07858409  0.07946563  0.60937047     0.12900
H372        H  0.11136072  0.21653258  0.64121813     0.17500
H373        H  0.03801995  0.12279143  0.57871709     0.03200
H374        H  0.04504783  0.13242090  0.70914828     0.17800
H375        H  0.11798359  0.05497155  0.64776421     0.17600
C376        C  0.18467434  0.12469604  0.80220729     0.00400
C377        C  0.13434342  0.17954935  0.71433520    -0.10500
C378        C  0.11273416  0.13576248  0.70608246     0.11700
C379        C  0.11279129  0.08988188  0.73207493    -0.10500
C380        C  0.13499466  0.08613391  0.76368566    -0.10500
C381        C  0.15797190  0.12849696  0.77038341     0.11700
C382        C  0.15670835  0.17559441  0.74554239    -0.10500
H383        H  0.13494917  0.21697435  0.69686203     0.15600
H384        H  0.09620637  0.05578143  0.72700412     0.15600
H385        H  0.13450365  0.04912727  0.78190131     0.15600
H386        H  0.17363494  0.20936960  0.74999463     0.15600
C387        C  0.17788112  0.21522028  0.84915934    -0.10400
C388        C  0.18278943  0.17439689  0.82856326    -0.12000
C389        C  0.18189698  0.07452352  0.82776913    -0.10400
C390        C  0.17688097  0.03455887  0.84892746    -0.12000
C391        C  0.09081132  0.23541750  0.54276979    -0.10400
C392        C  0.08095885  0.20965302  0.57091401    -0.12000
C393        C  0.08682021  0.04447559  0.57584750    -0.10400
C394        C  0.09616524  0.01707841  0.54789092    -0.12000
C395        C  0.27655133  0.37333466  0.53441857    -0.10400
C396        C  0.25079497  0.37364713  0.51713450    -0.12000
C397        C  0.39200792  0.37217707  0.99570645    -0.10500
C398        C  0.38272317  0.37407413  0.95507542     0.11700
C399        C  0.34956838  0.37554473  0.94591686    -0.10500
C400        C  0.32632979  0.37516908  0.97588184    -0.10500
C401        C  0.33514689  0.37327273  0.51681467     0.11700
C402        C  0.36847807  0.37191887  0.52609765    -0.10500
H403        H  0.41710391  0.37082824  0.00456086     0.15600
H404        H  0.34151047  0.37694418  0.91498484     0.15600
H405        H  0.30140291  0.37653296  0.96623759     0.15600
H406        H  0.37634818  0.37054467  0.55708210     0.15600
C407        C  0.24123173  0.12335657  0.76248782    -0.10400
C408        C  0.21620093  0.12352876  0.78131534    -0.12000
C409        C  0.31407552  0.32269445  0.57548602    -0.10400
C410        C  0.31909800  0.28240120  0.59638447    -0.12000
C411        C  0.31410462  0.42316439  0.57600064    -0.10400
C412        C  0.31923350  0.46354492  0.59696352    -0.12000
C413        C  0.41108208  0.45856563  0.82511441    -0.10400
C414        C  0.40096902  0.48530399  0.79733640    -0.12000
C415        C  0.40960204  0.29202545  0.82356773    -0.10400
C416        C  0.39897418  0.26545786  0.79592326    -0.12000
C417        C  0.02371209  0.38156218  0.88382087    -0.10400
C418        C  0.99471985  0.38016897  0.87986391    -0.12000
C419        C  0.88256086  0.41171369  0.79475977    -0.10500
C420        C  0.88296605  0.36555913  0.82050312     0.11700
C421        C  0.86182036  0.32125029  0.81194460    -0.10500
C422        C  0.83947486  0.32495272  0.78072430    -0.10500
C423        C  0.83776759  0.37236771  0.75622915     0.11700
C424        C  0.86035431  0.41525073  0.76316364    -0.10500
H425        H  0.89882468  0.44620382  0.80006618     0.15600
H426        H  0.86156995  0.28360495  0.82920092     0.15600
H427        H  0.82287037  0.29076688  0.77603210     0.15600
H428        H  0.86051454  0.45247934  0.74517055     0.15600
C429        C  0.81303107  0.42666301  0.69954289    -0.10400
C430        C  0.81772892  0.46699363  0.67866200    -0.12000
C431        C  0.81852056  0.28628159  0.67693018    -0.10400
C432        C  0.81341128  0.32681567  0.69772118    -0.12000
C433        C  0.89873928  0.48477124  0.97864008    -0.10400
C434        C  0.90789669  0.45742422  0.95065161    -0.12000
C435        C  0.91422819  0.29237679  0.95600993    -0.10400
C436        C  0.90406888  0.26652920  0.98401635    -0.12000
C437        C  0.97153579  0.12419166  0.64322490    -0.10400
C438        C  0.00052311  0.12504748  0.64733370    -0.12000
C439        C  0.71884809  0.12571645  0.49257038    -0.10400
C440        C  0.74449682  0.12626759  0.51003683    -0.12000
C441        C  0.47086312  0.12718004  0.63644559    -0.10400
C442        C  0.49982080  0.12690616  0.63244963    -0.12000
C443        C  0.62699029  0.12608457  0.50083644    -0.10500
C444        C  0.66032708  0.12523353  0.51010591     0.11700
C445        C  0.66926819  0.12406858  0.55098849    -0.10500
C446        C  0.64608498  0.12383941  0.58096627    -0.10500
C447        C  0.61293413  0.12479957  0.57183910     0.11700
C448        C  0.60357375  0.12596424  0.53121888    -0.10500
H449        H  0.61917788  0.12691013  0.96982351     0.15600
H450        H  0.69419202  0.12315174  0.56065260     0.15600
H451        H  0.65418663  0.12287962  0.61189252     0.15600
H452        H  0.57845882  0.12670969  0.52240910     0.15600
C453        C  0.77955537  0.37557381  0.74560479    -0.10400
C454        C  0.75465993  0.37492124  0.76464872    -0.12000
C455        C  0.68167046  0.07508865  0.95107850    -0.10400
C456        C  0.67670171  0.03463229  0.93013467    -0.12000
C457        C  0.68135214  0.17554540  0.95130630    -0.10400
C458        C  0.67640252  0.21586102  0.93045360    -0.12000
C459        C  0.59552759  0.01242417  0.72903702    -0.10400
C460        C  0.58523490  0.03923811  0.70140154    -0.12000
C461        C  0.58629185  0.20575399  0.70381176    -0.10400
C462        C  0.59687246  0.23228563  0.73149261    -0.12000
C463        C  0.52503318  0.37230667  0.89068110    -0.10400
C464        C  0.49607923  0.37215917  0.89482083    -0.12000
O465        O  0.64049900  0.75827003  0.38604096    -0.75600
C466        C  0.55820021  0.87357932  0.37860568     0.85400
O467        O  0.62946896  0.80660829  0.24778527    -0.76700
O468        O  0.60236147  0.98461546  0.29567787    -0.78200
O469        O  0.68616026  0.94711605  0.39985861    -0.78000
O470        O  0.68668097  0.80249826  0.40019331    -0.76700
Zn471      Zn  0.61585481  0.80713250  0.34740418     1.55700
O472        O  0.64028956  0.99297467  0.38594135    -0.78000
Cd473      Cd  0.68354780  0.87431338  0.36426631     1.59700
Cd474      Cd  0.65005113  0.87333197  0.27565033     1.59600
O475        O  0.72244695  0.87430350  0.32316818    -0.78000
O476        O  0.64110289  0.87316775  0.33441298    -1.88500
Cd477      Cd  0.61508384  0.94139825  0.34719029     1.59900
O478        O  0.69855476  0.87391734  0.26298366    -0.78000
O479        O  0.57136655  0.92049940  0.37268099    -0.76700
C480        C  0.61114164  0.76849304  0.26054365     0.85900
C481        C  0.66751904  0.76124796  0.40438711     0.85500
O482        O  0.57265439  0.82790950  0.37133762    -0.75600
C483        C  0.66736603  0.98913627  0.40408453     0.86400
O484        O  0.60437269  0.76303017  0.29749494    -0.75700
C485        C  0.72376791  0.87428711  0.28482327     0.86500
C486        C  0.60960035  0.97731303  0.25896158     0.86800
O487        O  0.62845346  0.93889740  0.24726509    -0.78100
C488        C  0.58953020  0.62445949  0.10688036     0.89300
C489        C  0.59466758  0.57297940  0.13354572    -0.50900
C490        C  0.57676910  0.57345331  0.16773067     0.12300
C491        C  0.55445079  0.62383109  0.17190054     0.23200
C492        C  0.55283954  0.62578738  0.09857523    -0.51600
C493        C  0.53473176  0.62552615  0.13271561     0.12400
C494        C  0.59548262  0.67420412  0.13520742    -0.51100
C495        C  0.57758829  0.67298454  0.16934922     0.12900
H496        H  0.61311633  0.54171826  0.12773931     0.17500
H497        H  0.53962744  0.62359294  0.19966366     0.03200
H498        H  0.54175678  0.62697397  0.06912892     0.17800
H499        H  0.61432230  0.70483355  0.13035168     0.17600
C500        C  0.68556309  0.62535874  0.47641021     0.00400
O501        O  0.85593029  0.74194880  0.13554696    -0.75600
C502        C  0.93837397  0.62353752  0.13056027     0.85400
O503        O  0.87018616  0.69344943  0.49841818    -0.76700
O504        O  0.89253552  0.51253621  0.04550590    -0.78200
O505        O  0.80919956  0.55408449  0.14785623    -0.78000
O506        O  0.80904970  0.69873910  0.14709236    -0.76700
Zn507      Zn  0.88169116  0.69179498  0.09861978     1.55700
O508        O  0.85506080  0.50731222  0.13568306    -0.78000
Cd509      Cd  0.81312981  0.62598586  0.11213169     1.59700
Cd510      Cd  0.84836885  0.62777512  0.02514074     1.59600
O511        O  0.77540795  0.62548702  0.06946257    -0.78000
O512        O  0.85618419  0.62647439  0.08412445    -1.88500
Cd513      Cd  0.88111403  0.55724628  0.09705275     1.59900
O514        O  0.80047110  0.62847297  0.01028205    -0.78000
O515        O  0.92523442  0.57698553  0.12269728    -0.76700
C516        C  0.88897568  0.73057827  0.01227336     0.85900
C517        C  0.82818043  0.73991947  0.15204454     0.85500
O518        O  0.92402825  0.66963444  0.12453571    -0.75600
C519        C  0.82766823  0.51186862  0.15285337     0.86400
O520        O  0.89521454  0.73537147  0.04949691    -0.75700
C521        C  0.77490642  0.62683806  0.03112817     0.86500
C522        C  0.88599602  0.52098872  0.00871054     0.86800
O523        O  0.86879426  0.56140233  0.49688355    -0.78100
C524        C  0.90461980  0.86709543  0.35758226     0.89300
C525        C  0.89704867  0.91807501  0.38415885    -0.50900
C526        C  0.91616483  0.92214792  0.41736212     0.12300
C527        C  0.94139587  0.87610114  0.42116461     0.23200
C528        C  0.94088890  0.87155794  0.34803408    -0.51600
C529        C  0.95993508  0.87633804  0.38130696     0.12400
C530        C  0.90212525  0.81776820  0.38705216    -0.51100
C531        C  0.92108507  0.82330347  0.42027004     0.12900
H532        H  0.87673352  0.94584488  0.37878208     0.17500
H533        H  0.95695653  0.87991440  0.44828521     0.03200
H534        H  0.95054874  0.87097149  0.31778659     0.17800
H535        H  0.88465491  0.78449701  0.38516843     0.17600
C536        C  0.81090975  0.87591183  0.22458288     0.00400
O537        O  0.42316502  0.67122868  0.15587518    -0.75600
C538        C  0.32812452  0.73707338  0.12255000     0.85400
O539        O  0.36668849  0.69066519  0.27948056    -0.76700
O540        O  0.27353163  0.62394854  0.20400003    -0.78200
O541        O  0.35586594  0.50543436  0.14073887    -0.78000
O542        O  0.42458099  0.57864456  0.15392231    -0.76700
Zn543      Zn  0.37984312  0.69151839  0.17972825     1.55700
O544        O  0.30975466  0.55089780  0.12736714    -0.78000
Cd545      Cd  0.38104816  0.55709830  0.17947187     1.59700
Cd546      Cd  0.34599318  0.62416950  0.25136912     1.59600
O547        O  0.39416266  0.51359645  0.23075089    -0.78000
O548        O  0.35485655  0.62506322  0.19257271    -1.88500
Cd549      Cd  0.31237894  0.62384967  0.16279997     1.59900
O550        O  0.36775692  0.55840358  0.27933107    -0.78000
O551        O  0.30912181  0.69558609  0.12670252    -0.76700
C552        C  0.38471716  0.72926763  0.26680716     0.85900
C553        C  0.43768424  0.62569237  0.14835292     0.85500
O554        O  0.35508385  0.74035683  0.14103046    -0.75600
C555        C  0.32864364  0.50904837  0.12290539     0.86400
O556        O  0.39118784  0.73537306  0.22982148    -0.75700
C557        C  0.38682979  0.52040013  0.26748791     0.86500
C558        C  0.27219855  0.62357894  0.24234501     0.86800
O559        O  0.29743264  0.62344860  0.26417791    -0.78100
C560        C  0.40624658  0.87413544  0.42010498     0.89300
C561        C  0.40035748  0.82410500  0.39203998    -0.50900
C562        C  0.41836077  0.82487855  0.35797638     0.12300
C563        C  0.44153413  0.87397647  0.35522830     0.23200
C564        C  0.44293958  0.87292688  0.42856219    -0.51600
C565        C  0.46115258  0.87283342  0.39449121     0.12400
C566        C  0.40121632  0.92532374  0.39308757    -0.51100
C567        C  0.41923924  0.92442135  0.35898400     0.12900
H568        H  0.38144455  0.79363013  0.39696351     0.17500
H569        H  0.45643452  0.87387410  0.32752582     0.03200
H570        H  0.45394802  0.87235623  0.45806126     0.17800
H571        H  0.38280123  0.95672725  0.39863838     0.17600
C572        C  0.30997082  0.87305883  0.05048154     0.00400
O573        O  0.14017429  0.99299298  0.39240538    -0.75600
C574        C  0.05695218  0.87989332  0.39619010     0.85400
O575        O  0.12637706  0.94002840  0.03068839    -0.76700
O576        O  0.09900744  0.76539102  0.47707384    -0.78200
O577        O  0.18645020  0.80269149  0.37986955    -0.78000
O578        O  0.18625130  0.94747217  0.37926250    -0.76700
Zn579      Zn  0.11450527  0.94451355  0.43045079     1.55700
O580        O  0.13964979  0.75834103  0.38978666    -0.78000
Cd581      Cd  0.18226968  0.87574816  0.41491545     1.59700
Cd582      Cd  0.14686305  0.87419653  0.00185085     1.59600
O583        O  0.21990401  0.87579947  0.45774152    -0.78000
O584        O  0.13914842  0.87720410  0.44277775    -1.88500
Cd585      Cd  0.11335133  0.81002603  0.42725988     1.59900
O586        O  0.19483834  0.87255345  0.01689417    -0.78000
O587        O  0.07037187  0.83265184  0.40033902    -0.76700
C588        C  0.10939220  0.98036816  0.01834497     0.85900
C589        C  0.16744279  0.98933298  0.37474092     0.85500
O590        O  0.07108411  0.92506321  0.40566455    -0.75600
C591        C  0.16765244  0.76120997  0.37410488     0.86400
O592        O  0.10343478  0.98815410  0.48118894    -0.75700
C593        C  0.22039008  0.87402305  0.49606866     0.86500
C594        C  0.10566475  0.77090104  0.01421673     0.86800
O595        O  0.12456401  0.80807086  0.02750824    -0.78100
C596        C  0.09089483  0.63443829  0.16913985     0.89300
C597        C  0.09370958  0.68355609  0.13955018    -0.50900
C598        C  0.07449521  0.67840648  0.10654313     0.12300
C599        C  0.05374427  0.62619770  0.10581490     0.23200
C600        C  0.05461416  0.63112198  0.17893546    -0.51600
C601        C  0.03537338  0.62688110  0.14578671     0.12400
C602        C  0.09785274  0.58312755  0.14259140    -0.51100
C603        C  0.07859926  0.57945283  0.10944934     0.12900
H604        H  0.11137923  0.71651993  0.14128339     0.17500
H605        H  0.03802947  0.62277776  0.07880327     0.03200
H606        H  0.04507857  0.63240955  0.20923497     0.17800
H607        H  0.11800463  0.55496506  0.14783380     0.17600
C608        C  0.18476550  0.62468942  0.30219046     0.00400
C609        C  0.13437108  0.67955533  0.21438609    -0.10500
C610        C  0.11276640  0.63575897  0.20614285     0.11700
C611        C  0.11284611  0.58986665  0.23212339    -0.10500
C612        C  0.13507199  0.58611241  0.26370741    -0.10500
C613        C  0.15804697  0.62848375  0.27039055     0.11700
C614        C  0.15675930  0.67559343  0.24556457    -0.10500
H615        H  0.13495570  0.71699438  0.19692744     0.15600
H616        H  0.09626407  0.55575983  0.22705982     0.15600
H617        H  0.13459870  0.54909536  0.28191261     0.15600
H618        H  0.17368251  0.70937565  0.25000849     0.15600
C619        C  0.17793948  0.71520503  0.34914396    -0.10400
C620        C  0.18287551  0.67438487  0.32855338    -0.12000
C621        C  0.18200133  0.57451103  0.32774723    -0.10400
C622        C  0.17696746  0.53454347  0.34889529    -0.12000
C623        C  0.09084794  0.73541044  0.04286081    -0.10400
C624        C  0.08098052  0.70963853  0.07099314    -0.12000
C625        C  0.08683404  0.54445170  0.07593190    -0.10400
C626        C  0.09618751  0.51704240  0.04798577    -0.12000
C627        C  0.27662381  0.87331087  0.03436942    -0.10400
C628        C  0.25085976  0.87361898  0.01709925    -0.12000
C629        C  0.39193129  0.87222509  0.49575218    -0.10500
C630        C  0.38264666  0.87408978  0.45511854     0.11700
C631        C  0.34949166  0.87552693  0.44596168    -0.10500
C632        C  0.32625376  0.87514523  0.47592891    -0.10500
C633        C  0.33522266  0.87326381  0.01676552     0.11700
C634        C  0.36855382  0.87187721  0.02605005    -0.10500
H635        H  0.41702691  0.87090530  0.50460886     0.15600
H636        H  0.34143295  0.87690069  0.41502948     0.15600
H637        H  0.30132677  0.87647567  0.46628333     0.15600
H638        H  0.37642288  0.87047920  0.05703418     0.15600
C639        C  0.24130117  0.62336426  0.26241599    -0.10400
C640        C  0.21628181  0.62353816  0.28126924    -0.12000
C641        C  0.31416222  0.82268884  0.07543731    -0.10400
C642        C  0.31920059  0.78240182  0.09633600    -0.12000
C643        C  0.31418194  0.92315770  0.07594505    -0.10400
C644        C  0.31931761  0.96353891  0.09690506    -0.12000
C645        C  0.41105420  0.95853672  0.32512834    -0.10400
C646        C  0.40098464  0.98526642  0.29732125    -0.12000
C647        C  0.40957593  0.79198821  0.32362163    -0.10400
C648        C  0.39898687  0.76542952  0.29594891    -0.12000
C649        C  0.02370556  0.88160858  0.38373472    -0.10400
C650        C  0.99471114  0.88020574  0.37979157    -0.12000
C651        C  0.88254760  0.91163919  0.29471068    -0.10500
C652        C  0.88294651  0.86548881  0.32045704     0.11700
C653        C  0.86176347  0.82121914  0.31193605    -0.10500
C654        C  0.83939741  0.82495295  0.28074303    -0.10500
C655        C  0.83770410  0.87236057  0.25623986     0.11700
C656        C  0.86032024  0.91520648  0.26314102    -0.10500
H657        H  0.89883315  0.94610503  0.29999615     0.15600
H658        H  0.86149092  0.78358797  0.32920624     0.15600
H659        H  0.82276712  0.79079728  0.27607716     0.15600
H660        H  0.86049119  0.95242785  0.24514073     0.15600
C661        C  0.81297096  0.92666885  0.19956286    -0.10400
C662        C  0.81769431  0.96699192  0.17868264    -0.12000
C663        C  0.81847181  0.78628419  0.17697504    -0.10400
C664        C  0.81333746  0.82682235  0.19775109    -0.12000
C665        C  0.89866724  0.98466908  0.47858338    -0.10400
C666        C  0.90784197  0.95731040  0.45060949    -0.12000
C667        C  0.91424428  0.79226868  0.45591656    -0.10400
C668        C  0.90405883  0.76641432  0.48390391    -0.12000
C669        C  0.97155298  0.62419198  0.14333890    -0.10400
C670        C  0.00054188  0.62503939  0.14743486    -0.12000
C671        C  0.71892861  0.62575983  0.99254278    -0.10400
C672        C  0.74456920  0.62630501  0.01002648    -0.12000
C673        C  0.47094070  0.62716035  0.13639621    -0.10400
C674        C  0.49989674  0.62687198  0.13239145    -0.12000
C675        C  0.62707419  0.62609092  0.00080984    -0.10500
C676        C  0.66041064  0.62525163  0.01007730     0.11700
C677        C  0.66935184  0.62406852  0.05096097    -0.10500
C678        C  0.64616907  0.62381065  0.08094049    -0.10500
C679        C  0.61301842  0.62476406  0.07181476     0.11700
C680        C  0.60365867  0.62594415  0.03119339    -0.10500
H681        H  0.61909499  0.62689371  0.46984957     0.15600
H682        H  0.69427531  0.62315727  0.06062557     0.15600
H683        H  0.65427089  0.62283771  0.11186630     0.15600
H684        H  0.57854441  0.62668212  0.02238142     0.15600
C685        C  0.77948986  0.87559545  0.24564456    -0.10400
C686        C  0.75460366  0.87492893  0.26470862    -0.12000
C687        C  0.68157987  0.57504820  0.45111563    -0.10400
C688        C  0.67660671  0.53459180  0.43017423    -0.12000
C689        C  0.68127285  0.67550204  0.45133557    -0.10400
C690        C  0.67632133  0.71581905  0.43048718    -0.12000
C691        C  0.59551836  0.51234457  0.22902445    -0.10400
C692        C  0.58526440  0.53915371  0.20136514    -0.12000
C693        C  0.58632631  0.70567770  0.20380394    -0.10400
C694        C  0.59687054  0.73220418  0.23150835    -0.12000
C695        C  0.52496390  0.87228216  0.39074004    -0.10400
C696        C  0.49601136  0.87215287  0.39489216    -0.12000
O697        O  0.64058017  0.75830993  0.88600311    -0.75600
C698        C  0.55827424  0.87361596  0.87856640     0.85400
O699        O  0.62949561  0.80667978  0.74773882    -0.76700
O700        O  0.60242490  0.98468226  0.79567533    -0.78200
O701        O  0.68625342  0.94716410  0.89980150    -0.78000
O702        O  0.68676133  0.80254006  0.90015115    -0.76700
Zn703      Zn  0.61593342  0.80718148  0.84737221     1.55700
O704        O  0.64037104  0.99300999  0.88592223    -0.78000
Cd705      Cd  0.68362313  0.87435252  0.86421659     1.59700
Cd706      Cd  0.65010110  0.87339796  0.77559845     1.59600
O707        O  0.72250696  0.87431448  0.82310418    -0.78000
O708        O  0.64117470  0.87321876  0.83437010    -1.88500
Cd709      Cd  0.61515947  0.94144527  0.84716962     1.59900
O710        O  0.69860799  0.87396548  0.76292147    -0.78000
O711        O  0.57143857  0.92053946  0.87264847    -0.76700
C712        C  0.61117412  0.76856417  0.76051248     0.85900
C713        C  0.66760057  0.76128838  0.90434838     0.85500
O714        O  0.57273452  0.82795064  0.87130497    -0.75600
C715        C  0.66745640  0.98917779  0.90404543     0.86400
O716        O  0.60443217  0.76309256  0.79747002    -0.75700
C717        C  0.72382348  0.87430626  0.78475958     0.86500
C718        C  0.60963980  0.97738921  0.75895162     0.86800
O719        O  0.62848740  0.93897691  0.74723178    -0.78100
C720        C  0.58944856  0.62450997  0.60690509     0.89300
C721        C  0.59459424  0.57303972  0.63357526    -0.50900
C722        C  0.57671014  0.57352263  0.66776978     0.12300
C723        C  0.55438990  0.62390073  0.67194231     0.23200
C724        C  0.55275630  0.62583061  0.59861447    -0.51600
C725        C  0.53465749  0.62557823  0.63276366     0.12400
C726        C  0.59540663  0.67426571  0.63521769    -0.51100
C727        C  0.57752542  0.67305809  0.66936905     0.12900
H728        H  0.61304239  0.54177863  0.62776471     0.17500
H729        H  0.53957574  0.62367023  0.69971289     0.03200
H730        H  0.54166750  0.62700126  0.56917098     0.17800
H731        H  0.61424559  0.70489224  0.63034730     0.17600
C732        C  0.68564580  0.62539705  0.97637867     0.00400
O733        O  0.85593357  0.74193836  0.63544630    -0.75600
C734        C  0.93835803  0.62352739  0.63044383     0.85400
O735        O  0.87022706  0.69352994  0.99852484    -0.76700
O736        O  0.89248582  0.51248874  0.54543650    -0.78200
O737        O  0.80920189  0.55407508  0.64782630    -0.78000
O738        O  0.80906114  0.69873758  0.64705382    -0.76700
Zn739      Zn  0.88166687  0.69176065  0.59851434     1.55700
O740        O  0.85506409  0.50731721  0.63563115    -0.78000
Cd741      Cd  0.81311240  0.62597363  0.61208962     1.59700
Cd742      Cd  0.84831173  0.62771839  0.52506036     1.59600
O743        O  0.77536979  0.62546824  0.56944640    -0.78000
O744        O  0.85615059  0.62644486  0.58404270    -1.88500
Cd745      Cd  0.88109096  0.55723104  0.59697164     1.59900
O746        O  0.80040130  0.62843410  0.51024280    -0.78000
O747        O  0.92522111  0.57697284  0.62258509    -0.76700
C748        C  0.88894645  0.73048780  0.51215995     0.85900
C749        C  0.82819848  0.73991603  0.65198027     0.85500
O750        O  0.92400766  0.66961888  0.62442028    -0.75600
C751        C  0.82767961  0.51186891  0.65281913     0.86400
O752        O  0.89518528  0.73529375  0.54938150    -0.75700
C753        C  0.77484732  0.62680780  0.53111165     0.86500
C754        C  0.88592606  0.52090641  0.50864318     0.86800
O755        O  0.86887365  0.56149739  0.99695637    -0.78100
C756        C  0.90462699  0.86717111  0.85764266     0.89300
C757        C  0.89708254  0.91818349  0.88420134    -0.50900
C758        C  0.91620065  0.92224531  0.91740605     0.12300
C759        C  0.94140309  0.87615806  0.92122729     0.23200
C760        C  0.94089941  0.87156608  0.84809975    -0.51600
C761        C  0.95994415  0.87633586  0.88137338     0.12400
C762        C  0.90209742  0.81787231  0.88713542    -0.51100
C763        C  0.92106129  0.82339749  0.92035261     0.12900
H764        H  0.87678234  0.94598143  0.87881473     0.17500
H765        H  0.95696461  0.87996519  0.94834790     0.03200
H766        H  0.95056239  0.87094910  0.81785384     0.17800
H767        H  0.88460020  0.78464043  0.88526458     0.17600
C768        C  0.81097982  0.87590141  0.72455831     0.00400
O769        O  0.42307574  0.67123845  0.65589427    -0.75600
C770        C  0.32802051  0.73707207  0.62259852     0.85400
O771        O  0.36664663  0.69069877  0.77951335    -0.76700
O772        O  0.27345794  0.62393450  0.70407647    -0.78200
O773        O  0.35578266  0.50544922  0.64078855    -0.78000
O774        O  0.42450171  0.57865678  0.65396300    -0.76700
Zn775      Zn  0.37975408  0.69151711  0.67974883     1.55700
O776        O  0.30966379  0.55089834  0.62743176    -0.78000
Cd777      Cd  0.38096651  0.55711909  0.67951108     1.59700
Cd778      Cd  0.34592870  0.62419266  0.75142807     1.59600
O779        O  0.39409495  0.51362868  0.73078035    -0.78000
O780        O  0.35477237  0.62507316  0.69262324    -1.88500
Cd781      Cd  0.31228986  0.62385221  0.66286268     1.59900
O782        O  0.36770899  0.55842511  0.77938307    -0.78000
O783        O  0.30901385  0.69559269  0.62676692    -0.76700
C784        C  0.38467116  0.72929091  0.76681136     0.85900
C785        C  0.43760213  0.62570497  0.64838742     0.85500
O786        O  0.35498735  0.74034663  0.64106104    -0.75600
C787        C  0.32855664  0.50905511  0.62296384     0.86400
O788        O  0.39111619  0.73538069  0.72981874    -0.75700
C789        C  0.38678181  0.52042963  0.76752251     0.86500
C790        C  0.27212946  0.62358111  0.74242113     0.86800
O791        O  0.29736585  0.62347475  0.76425214    -0.78100
C792        C  0.40632107  0.87412849  0.92006368     0.89300
C793        C  0.40041966  0.82411620  0.89198952    -0.50900
C794        C  0.41841146  0.82490109  0.85791872     0.12300
C795        C  0.44158963  0.87399549  0.85517193     0.23200
C796        C  0.44301515  0.87290318  0.92850733    -0.51600
C797        C  0.46121978  0.87282605  0.89442840     0.12400
C798        C  0.40129087  0.92533429  0.89306699    -0.51100
C799        C  0.41930001  0.92444627  0.85895449     0.12900
H800        H  0.38150478  0.79364460  0.89691373     0.17500
H801        H  0.45648139  0.87390518  0.82746243     0.03200
H802        H  0.45402911  0.87231831  0.95800324     0.17800
H803        H  0.38287896  0.95673813  0.89863465     0.17600
C804        C  0.30989487  0.87306969  0.55053288     0.00400
O805        O  0.14013378  0.99299129  0.89248658    -0.75600
C806        C  0.05695364  0.87985333  0.89628914     0.85400
O807        O  0.12631882  0.94002663  0.53060548    -0.76700
O808        O  0.09903667  0.76538083  0.97716788    -0.78200
O809        O  0.18641926  0.80270547  0.87987970    -0.78000
O810        O  0.18620706  0.94749157  0.87928807    -0.76700
Zn811      Zn  0.11449824  0.94448690  0.93054275     1.55700
O812        O  0.13963352  0.75833912  0.88986108    -0.78000
Cd813      Cd  0.18226333  0.87575540  0.91494297     1.59700
Cd814      Cd  0.14681752  0.87420771  0.50178144     1.59600
O815        O  0.21992738  0.87579593  0.95773530    -0.78000
O816        O  0.13916121  0.87719443  0.94285175    -1.88500
Cd817      Cd  0.11336007  0.81001546  0.92735239     1.59900
O818        O  0.19477715  0.87258430  0.51687516    -0.78000
O819        O  0.07037559  0.83261645  0.90044368    -0.76700
C820        C  0.10936554  0.98039714  0.51825224     0.85900
C821        C  0.16738810  0.98934459  0.87478897     0.85500
O822        O  0.07108076  0.92502623  0.90576323    -0.75600
C823        C  0.16761970  0.76121929  0.87413932     0.86400
O824        O  0.10343060  0.98810135  0.98128706    -0.75700
C825        C  0.22043896  0.87400110  0.99606237     0.86500
C826        C  0.10562627  0.77091115  0.51412613     0.86800
O827        O  0.12451977  0.80808250  0.52742467    -0.78100
C828        C  0.09087260  0.63444638  0.66906685     0.89300
C829        C  0.09369352  0.68356563  0.63947683    -0.50900
C830        C  0.07448209  0.67841676  0.60646505     0.12300
C831        C  0.05373105  0.62621052  0.60573231     0.23200
C832        C  0.05458929  0.63113395  0.67885155    -0.51600
C833        C  0.03535437  0.62689397  0.64569784     0.12400
C834        C  0.09783307  0.58313541  0.64251818    -0.51100
C835        C  0.07858412  0.57946572  0.60937045     0.12900
H836        H  0.11136078  0.71653257  0.64121808     0.17500
H837        H  0.03801999  0.62279157  0.57871708     0.03200
H838        H  0.04504777  0.63242101  0.70914821     0.17800
H839        H  0.11798361  0.55497167  0.64776423     0.17600
C840        C  0.18467436  0.62469607  0.80220731     0.00400
C841        C  0.13434341  0.67954938  0.71433522    -0.10500
C842        C  0.11273412  0.63576251  0.70608250     0.11700
C843        C  0.11279131  0.58988191  0.73207492    -0.10500
C844        C  0.13499467  0.58613380  0.76368568    -0.10500
C845        C  0.15797189  0.62849697  0.77038345     0.11700
C846        C  0.15670836  0.67559435  0.74554238    -0.10500
H847        H  0.13494914  0.71697434  0.69686211     0.15600
H848        H  0.09620634  0.55578132  0.72700407     0.15600
H849        H  0.13450371  0.54912724  0.78190120     0.15600
H850        H  0.17363499  0.70936953  0.74999455     0.15600
C851        C  0.17788107  0.71522028  0.84915933    -0.10400
C852        C  0.18278946  0.67439690  0.82856329    -0.12000
C853        C  0.18189703  0.57452355  0.82776913    -0.10400
C854        C  0.17688098  0.53455888  0.84892741    -0.12000
C855        C  0.09081127  0.73541759  0.54276977    -0.10400
C856        C  0.08095887  0.70965299  0.57091398    -0.12000
C857        C  0.08682013  0.54447550  0.57584753    -0.10400
C858        C  0.09616522  0.51707841  0.54789092    -0.12000
C859        C  0.27655132  0.87333451  0.53441860    -0.10400
C860        C  0.25079499  0.87364698  0.51713448    -0.12000
C861        C  0.39200793  0.87217696  0.99570644    -0.10500
C862        C  0.38272316  0.87407406  0.95507540     0.11700
C863        C  0.34956836  0.87554456  0.94591685    -0.10500
C864        C  0.32632978  0.87516895  0.97588183    -0.10500
C865        C  0.33514685  0.87327280  0.51681465     0.11700
C866        C  0.36847801  0.87191873  0.52609764    -0.10500
H867        H  0.41710383  0.87082795  0.00456081     0.15600
H868        H  0.34151044  0.87694392  0.91498483     0.15600
H869        H  0.30140288  0.87653275  0.96623758     0.15600
H870        H  0.37634806  0.87054444  0.55708214     0.15600
C871        C  0.24123177  0.62335666  0.76248784    -0.10400
C872        C  0.21620095  0.62352890  0.78131533    -0.12000
C873        C  0.31407555  0.82269448  0.57548602    -0.10400
C874        C  0.31909806  0.78240123  0.59638442    -0.12000
C875        C  0.31410461  0.92316441  0.57600067    -0.10400
C876        C  0.31923348  0.96354501  0.59696348    -0.12000
C877        C  0.41108216  0.95856565  0.82511440    -0.10400
C878        C  0.40096903  0.98530390  0.79733637    -0.12000
C879        C  0.40960207  0.79202545  0.82356767    -0.10400
C880        C  0.39897423  0.76545767  0.79592326    -0.12000
C881        C  0.02371204  0.88156211  0.88382087    -0.10400
C882        C  0.99471983  0.88016900  0.87986390    -0.12000
C883        C  0.88256086  0.91171363  0.79475978    -0.10500
C884        C  0.88296609  0.86555907  0.82050309     0.11700
C885        C  0.86182043  0.82125012  0.81194459    -0.10500
C886        C  0.83947491  0.82495263  0.78072430    -0.10500
C887        C  0.83776759  0.87236762  0.75622917     0.11700
C888        C  0.86035429  0.91525072  0.76316364    -0.10500
H889        H  0.89882466  0.94620379  0.80006618     0.15600
H890        H  0.86157002  0.78360487  0.82920086     0.15600
H891        H  0.82287039  0.79076668  0.77603211     0.15600
H892        H  0.86051451  0.95247919  0.74517059     0.15600
C893        C  0.81303101  0.92666299  0.69954289    -0.10400
C894        C  0.81772895  0.96699364  0.67866203    -0.12000
C895        C  0.81852049  0.78628166  0.67693010    -0.10400
C896        C  0.81341127  0.82681569  0.69772116    -0.12000
C897        C  0.89873920  0.98477104  0.97864012    -0.10400
C898        C  0.90789667  0.95742403  0.95065167    -0.12000
C899        C  0.91422810  0.79237694  0.95600993    -0.10400
C900        C  0.90406885  0.76652933  0.98401636    -0.12000
C901        C  0.97153582  0.62419178  0.64322489    -0.10400
C902        C  0.00052314  0.62504758  0.64733367    -0.12000
C903        C  0.71884814  0.62571654  0.49257039    -0.10400
C904        C  0.74449686  0.62626777  0.51003683    -0.12000
C905        C  0.47086310  0.62717994  0.63644559    -0.10400
C906        C  0.49982078  0.62690626  0.63244962    -0.12000
C907        C  0.62699034  0.62608468  0.50083644    -0.10500
C908        C  0.66032712  0.62523356  0.51010592     0.11700
C909        C  0.66926824  0.62406839  0.55098852    -0.10500
C910        C  0.64608497  0.62383918  0.58096626    -0.10500
C911        C  0.61293413  0.62479942  0.57183909     0.11700
C912        C  0.60357380  0.62596408  0.53121886    -0.10500
H913        H  0.61917794  0.62691023  0.96982352     0.15600
H914        H  0.69419197  0.62315141  0.56065261     0.15600
H915        H  0.65418660  0.62287934  0.61189255     0.15600
H916        H  0.57845881  0.62670943  0.52240904     0.15600
C917        C  0.77955537  0.87557366  0.74560481    -0.10400
C918        C  0.75465995  0.87492132  0.76464877    -0.12000
C919        C  0.68167052  0.57508865  0.95107851    -0.10400
C920        C  0.67670176  0.53463230  0.93013468    -0.12000
C921        C  0.68135219  0.67554548  0.95130630    -0.10400
C922        C  0.67640253  0.71586109  0.93045361    -0.12000
C923        C  0.59552757  0.51242414  0.72903699    -0.10400
C924        C  0.58523488  0.53923804  0.70140149    -0.12000
C925        C  0.58629173  0.70575405  0.70381177    -0.10400
C926        C  0.59687243  0.73228552  0.73149264    -0.12000
C927        C  0.52503319  0.87230669  0.89068110    -0.10400
C928        C  0.49607924  0.87215933  0.89482085    -0.12000
loop_ 
_geom_bond_atom_site_label_1 
_geom_bond_atom_site_label_2 
_geom_bond_distance 
_geom_bond_site_symmetry_2 
_ccdc_geom_bond_type 
O1           C17   1.274       .  A
O1           Zn7   2.020       .  S
C2           O18   1.272       .  A
C2           O15   1.271       .  A
C2          C231   1.434       .  S
O3           C16   1.267       .  A
O3          Cd10   2.039       .  S
O4           C22   1.273       .  A
O4          Cd13   2.078       .  S
O5           C19   1.281       .  A
O5           Cd9   2.115       .  S
O6           C17   1.280       .  A
O6           Cd9   2.111       .  S
Zn7          O18   2.019       .  S
Zn7          O20   2.026       .  S
Zn7          O12   1.955       .  S
O8           C19   1.274       .  A
O8          Cd13   2.069       .  S
Cd9          O11   2.116       .  S
Cd9          O12   2.015       .  S
Cd10         O14   2.051       .  S
Cd10         O23   2.046       .  S
Cd10         O12   1.996       .  S
O11          C21   1.280       .  A
O12         Cd13   2.005       .  S
Cd13         O15   2.064       .  S
O14          C21   1.270       .  A
C16          O20   1.272       .  A
C16         C230   1.428       .  S
C17         C226   1.446       .  S
C19         C688   1.446       .  S
C21         C222   1.443       .  S
C22          O23   1.268       .  A
C22         C691   1.431       .  S
C24          C25   1.542       .  S
C24          C30   1.541       .  S
C24          C28   1.542       .  S
C24         C215   1.523       .  S
C25          H32   1.087       .  S
C25          C26   1.361       .  D
C26          C27   1.527       .  S
C26         C228   1.438       .  S
C27          C31   1.526       .  S
C27          C29   1.539       .  S
C27          H33   1.112       .  S
C28          H34   1.083       .  S
C28          C29   1.365       .  D
C29         C210   1.441       .  S
C30          H35   1.087       .  S
C30          C31   1.360       .  D
C31         C229   1.436       .  S
C36         C444   1.536       .  S
C36         C223   1.482       .  S
C36         C225   1.481       .  S
C36         C439   1.477       .  S
O37          C53   1.275       .  A
O37         Zn43   2.023       .  S
C38          O54   1.273       .  A
C38          O51   1.272       .  A
C38         C205   1.435       .  S
O39         C284   1.267       .  A
O39        Cd278   2.034       .  S
O40          C58   1.273       .  A
O40         Cd49   2.079       .  S
O41          C55   1.280       .  A
O41         Cd45   2.113       .  S
O42          C53   1.280       .  A
O42         Cd45   2.106       .  S
Zn43         O54   2.021       .  S
Zn43         O56   2.030       .  S
Zn43         O48   1.954       .  S
O44          C55   1.275       .  A
O44         Cd49   2.072       .  S
Cd45         O47   2.108       .  S
Cd45         O48   2.013       .  S
Cd46         O50   2.040       .  S
Cd46        O271   2.034   1_554  S
Cd46        O291   2.032   1_554  S
Cd46         O48   1.993       .  S
O47          C57   1.279       .  A
O48         Cd49   2.004       .  S
Cd49         O51   2.068       .  S
O50          C57   1.268       .  A
C52          O56   1.272       .  A
C52         O271   1.267   1_554  A
C52         C436   1.429   1_554  S
C53         C199   1.445       .  S
C55         C662   1.446   1_545  S
C57         C208   1.437       .  S
C58         O291   1.266   1_554  A
C58         C897   1.427   1_544  S
O59         C290   1.266       .  A
O59        Cd278   2.032       .  S
C60          C61   1.542       .  S
C60          C66   1.549       .  S
C60          C64   1.538       .  S
C60         C188   1.527       .  S
C61          H68   1.087       .  S
C61          C62   1.362       .  D
C62          C63   1.525       .  S
C62         C202   1.434       .  S
C63          C67   1.525       .  S
C63          C65   1.537       .  S
C63          H69   1.112       .  S
C64          H70   1.086       .  S
C64          C65   1.364       .  D
C65         C186   1.442       .  S
C66          H71   1.081       .  S
C66          C67   1.362       .  D
C67         C203   1.436       .  S
C72         C191   1.531       .  S
C72         C197   1.485       .  S
C72         C200   1.482       .  S
C72         C221   1.479       .  S
O73          C89   1.272       .  A
O73         Zn79   2.020       .  S
C74          O90   1.275       .  A
C74          O87   1.281       .  A
C74         C178   1.448       .  S
O75          C88   1.268       .  A
O75         Cd82   2.040       .  S
O76          C94   1.280       .  A
O76         Cd85   2.117       .  S
O77          C91   1.274       .  A
O77         Cd81   2.070       .  S
O78          C89   1.271       .  A
O78         Cd81   2.062       .  S
Zn79         O90   2.024       .  S
Zn79         O92   2.027       .  S
Zn79         O84   1.956       .  S
O80          C91   1.281       .  A
O80         Cd85   2.115       .  S
Cd81         O83   2.079       .  S
Cd81         O84   2.006       .  S
Cd82         O86   2.046       .  S
Cd82         O95   2.054       .  S
Cd82         O84   1.996       .  S
O83          C93   1.273       .  A
O84         Cd85   2.015       .  S
Cd85         O87   2.113       .  S
O86          C93   1.268       .  A
C88          O92   1.272       .  A
C88         C184   1.429       .  S
C89         C209   1.433       .  S
C91         C644   1.446   1_545  S
C93         C646   1.432   1_545  S
C94          O95   1.271       .  A
C94         C175   1.444       .  S
C96          C97   1.541       .  S
C96         C102   1.543       .  S
C96         C100   1.542       .  S
C96         C166   1.524       .  S
C97         H104   1.087       .  S
C97          C98   1.360       .  D
C98          C99   1.527       .  S
C98         C183   1.436       .  S
C99         C103   1.527       .  S
C99         C101   1.539       .  S
C99         H105   1.112       .  S
C100        H106   1.083       .  S
C100        C101   1.365       .  D
C101        C232   1.441       .  S
C102        H107   1.087       .  S
C102        C103   1.362       .  D
C103        C181   1.438       .  S
C108        C169   1.537       .  S
C108        C163   1.478       .  S
C108        C177   1.483       .  S
C108        C179   1.482       .  S
O109        C125   1.276       .  A
O109       Zn115   2.032       .  S
C110        O126   1.274       .  A
C110        O123   1.272       .  A
C110        C185   1.435       .  S
O111        C124   1.266       .  A
O111       Cd118   2.033       .  S
O112        C362   1.272       .  A
O112       Cd121   2.072       .  S
O113        C127   1.280       .  A
O113       Cd117   2.114       .  S
O114        C125   1.280       .  A
O114       Cd117   2.108       .  S
Zn115       O126   2.029       .  S
Zn115       O128   2.040       .  S
Zn115       O120   1.956       .  S
O116        C127   1.274       .  A
O116       Cd121   2.068       .  S
Cd117       O119   2.109       .  S
Cd117       O120   2.013       .  S
Cd118       O122   2.045       .  S
Cd118       O131   2.035       .  S
Cd118       O352   1.994   1_554  S
O119        C129   1.279       .  A
O120       Cd121   2.005       .  S
O120       Cd350   1.994       .  S
Cd121       O123   2.062       .  S
O122        C361   1.269   1_554  A
C124        O360   1.274   1_554  A
C124        C626   1.431       .  S
C125        C622   1.448       .  S
C127        C155   1.446       .  S
O128        C356   1.274       .  A
C129        O354   1.268       .  A
C129        C396   1.438       .  S
C130        O131   1.267       .  A
C130        O344   1.272   1_554  A
C130        C159   1.425       .  S
C132        C133   1.548       .  S
C132        C138   1.543       .  S
C132        C136   1.539       .  S
C132        C146   1.528       .  S
C133        H140   1.081       .  S
C133        C134   1.361       .  D
C134        C135   1.524       .  S
C134        C160   1.433       .  S
C135        C139   1.526       .  S
C135        C137   1.536       .  S
C135        H141   1.112       .  S
C136        H142   1.086       .  S
C136        C137   1.364       .  D
C137        C206   1.442       .  S
C138        H143   1.087       .  S
C138        C139   1.363       .  D
C139        C161   1.438       .  S
C144        C149   1.532       .  S
C144        C156   1.483       .  S
C144        C157   1.486       .  S
C144        C176   1.480       .  S
C145        C146   1.409       .  A
C145        C150   1.394       .  A
C145        H151   1.075       .  S
C146        C147   1.407       .  A
C147        C148   1.399       .  A
C147        H152   1.083       .  S
C148        C149   1.412       .  A
C148        H153   1.081       .  S
C149        C150   1.408       .  A
C150        H154   1.084       .  S
C155        C156   1.213       .  T
C157        C158   1.214       .  T
C158        C589   1.448   1_545  S
C159        C160   1.200       .  T
C161        C162   1.203       .  T
C162        C588   1.431   1_545  S
C163        C164   1.210       .  T
C164        C361   1.439   1_554  S
C165        C166   1.409       .  A
C165        C402   1.404       .  A
C165        H171   1.078       .  S
C166        C167   1.404       .  A
C167        C168   1.389       .  A
C167        H172   1.084       .  S
C168        C401   1.412       .  A
C168        H173   1.079       .  S
C169        C170   1.412       .  A
C169        C400   1.412   1_554  A
C170        C397   1.404   1_554  A
C170        H174   1.083       .  S
C175        C176   1.212       .  T
C177        C178   1.214       .  T
C179        C180   1.213       .  T
C180        C555   1.446       .  S
C181        C182   1.204       .  T
C182        C557   1.432       .  S
C183        C184   1.202       .  T
C185        C186   1.206   1_455  T
C187        C188   1.407       .  A
C187        C192   1.398       .  A
C187        H193   1.083       .  S
C188        C189   1.409       .  A
C189        C190   1.393       .  A
C189        H194   1.076       .  S
C190        C191   1.408       .  A
C190        H195   1.084       .  S
C191        C192   1.412       .  A
C192        H196   1.081       .  S
C197        C198   1.214       .  T
C198        C519   1.446       .  S
C199        C200   1.213       .  T
C201        C754   1.427       .  S
C201        C202   1.201       .  T
C203        C204   1.202       .  T
C204        C284   1.429       .  S
C205        C206   1.206   1_655  T
C207        C268   1.477       .  S
C207        C208   1.209   1_556  T
C209        C210   1.205       .  T
C211        C212   1.412       .  A
C211        C216   1.404       .  A
C211        H449   1.083   1_554  S
C212        C268   1.536   1_554  S
C212        C213   1.412       .  A
C213        C214   1.387       .  A
C213        H218   1.079       .  S
C214        C215   1.403       .  A
C214        H219   1.084       .  S
C215        C216   1.408       .  A
C216        H220   1.078       .  S
H217        C443   1.083       .  S
C221        C222   1.211       .  T
C223        C224   1.213       .  T
C224        C483   1.446   1_545  S
C225        C226   1.213       .  T
C227        C486   1.431   1_545  S
C227        C228   1.204       .  T
C229        C230   1.202       .  T
C231        C232   1.205       .  T
O233        C249   1.274       .  A
O233       Zn239   2.020       .  S
C234        O250   1.272       .  A
C234        O247   1.271       .  A
C234        C463   1.434       .  S
O235        C248   1.267       .  A
O235       Cd242   2.039       .  S
O236        C254   1.273       .  A
O236       Cd245   2.078       .  S
O237        C251   1.281       .  A
O237       Cd241   2.115       .  S
O238        C249   1.280       .  A
O238       Cd241   2.111       .  S
Zn239       O250   2.019       .  S
Zn239       O252   2.026       .  S
Zn239       O244   1.955       .  S
O240        C251   1.274       .  A
O240       Cd245   2.069       .  S
Cd241       O243   2.116       .  S
Cd241       O244   2.015       .  S
Cd242       O246   2.051       .  S
Cd242       O255   2.046       .  S
Cd242       O244   1.996       .  S
O243        C253   1.280       .  A
O244       Cd245   2.005       .  S
Cd245       O247   2.064       .  S
O246        C253   1.270       .  A
C248        O252   1.272       .  A
C248        C462   1.428       .  S
C249        C458   1.446       .  S
C251        C920   1.446       .  S
C253        C454   1.443       .  S
C254        O255   1.268       .  A
C254        C923   1.431       .  S
C256        C257   1.542       .  S
C256        C262   1.541       .  S
C256        C260   1.542       .  S
C256        C447   1.522       .  S
C257        H264   1.087       .  S
C257        C258   1.361       .  D
C258        C259   1.528       .  S
C258        C460   1.438       .  S
C259        C263   1.526       .  S
C259        C261   1.539       .  S
C259        H265   1.112       .  S
C260        H266   1.083       .  S
C260        C261   1.365       .  D
C261        C442   1.441       .  S
C262        H267   1.087       .  S
C262        C263   1.360       .  D
C263        C461   1.436       .  S
C268        C455   1.482       .  S
C268        C457   1.482       .  S
O269        C285   1.275       .  A
O269       Zn275   2.023       .  S
C270        O286   1.273       .  A
C270        O283   1.272       .  A
C270        C437   1.435       .  S
O272        C290   1.273       .  A
O272       Cd281   2.079       .  S
O273        C287   1.280       .  A
O273       Cd277   2.113       .  S
O274        C285   1.280       .  A
O274       Cd277   2.106       .  S
Zn275       O286   2.021       .  S
Zn275       O288   2.030       .  S
Zn275       O280   1.954       .  S
O276        C287   1.275       .  A
O276       Cd281   2.072       .  S
Cd277       O279   2.108       .  S
Cd277       O280   2.013       .  S
Cd278       O282   2.040       .  S
Cd278       O280   1.993       .  S
O279        C289   1.279       .  A
O280       Cd281   2.004       .  S
Cd281       O283   2.068       .  S
O282        C289   1.268       .  A
C284        O288   1.272       .  A
C285        C431   1.445       .  S
C287        C894   1.446   1_545  S
C289        C440   1.437       .  S
C290        C665   1.427   1_545  S
C292        C293   1.542       .  S
C292        C298   1.549       .  S
C292        C296   1.538       .  S
C292        C420   1.527       .  S
C293        H300   1.087       .  S
C293        C294   1.362       .  D
C294        C295   1.525       .  S
C294        C434   1.434       .  S
C295        C299   1.525       .  S
C295        C297   1.537       .  S
C295        H301   1.112       .  S
C296        H302   1.086       .  S
C296        C297   1.364       .  D
C297        C418   1.442       .  S
C298        H303   1.081       .  S
C298        C299   1.362       .  D
C299        C435   1.436       .  S
C304        C423   1.531       .  S
C304        C429   1.485       .  S
C304        C432   1.482       .  S
C304        C453   1.479       .  S
O305        C321   1.272       .  A
O305       Zn311   2.020       .  S
C306        O322   1.275       .  A
C306        O319   1.281       .  A
C306        C410   1.448       .  S
O307        C320   1.268       .  A
O307       Cd314   2.040       .  S
O308        C326   1.280       .  A
O308       Cd317   2.117       .  S
O309        C323   1.274       .  A
O309       Cd313   2.070       .  S
O310        C321   1.271       .  A
O310       Cd313   2.062       .  S
Zn311       O322   2.023       .  S
Zn311       O324   2.026       .  S
Zn311       O316   1.956       .  S
O312        C323   1.281       .  A
O312       Cd317   2.115       .  S
Cd313       O315   2.079       .  S
Cd313       O316   2.006       .  S
Cd314       O318   2.046       .  S
Cd314       O327   2.054       .  S
Cd314       O316   1.997       .  S
O315        C325   1.273       .  A
O316       Cd317   2.015       .  S
Cd317       O319   2.113       .  S
O318        C325   1.268       .  A
C320        O324   1.272       .  A
C320        C416   1.429       .  S
C321        C441   1.433       .  S
C323        C876   1.446   1_545  S
C325        C878   1.432   1_545  S
C326        O327   1.271       .  A
C326        C407   1.444       .  S
C328        C329   1.541       .  S
C328        C334   1.543       .  S
C328        C332   1.542       .  S
C328        C398   1.524       .  S
C329        H336   1.087       .  S
C329        C330   1.360       .  D
C330        C331   1.527       .  S
C330        C415   1.436       .  S
C331        C335   1.527       .  S
C331        C333   1.539       .  S
C331        H337   1.112       .  S
C332        H338   1.083       .  S
C332        C333   1.365       .  D
C333        C464   1.441       .  S
C334        H339   1.087       .  S
C334        C335   1.362       .  D
C335        C413   1.438       .  S
C340        C401   1.537       .  S
C340        C395   1.478       .  S
C340        C409   1.483       .  S
C340        C411   1.482       .  S
O341        C357   1.276       .  A
O341       Zn347   2.031       .  S
C342        O358   1.274       .  A
C342        O355   1.272       .  A
C342        C417   1.435       .  S
O343        C356   1.266       .  A
O343       Cd350   2.033       .  S
O344       Cd353   2.072       .  S
O345        C359   1.280       .  A
O345       Cd349   2.114       .  S
O346        C357   1.280       .  A
O346       Cd349   2.108       .  S
Zn347       O358   2.029       .  S
Zn347       O360   2.040       .  S
Zn347       O352   1.956       .  S
O348        C359   1.274       .  A
O348       Cd353   2.068       .  S
Cd349       O351   2.109       .  S
Cd349       O352   2.013       .  S
Cd350       O354   2.045       .  S
Cd350       O363   2.035       .  S
O351        C361   1.280       .  A
O352       Cd353   2.004       .  S
Cd353       O355   2.061       .  S
C356        C858   1.431       .  S
C357        C854   1.448       .  S
C359        C387   1.446       .  S
C362        O363   1.267       .  A
C362        C391   1.425       .  S
C364        C365   1.548       .  S
C364        C370   1.543       .  S
C364        C368   1.539       .  S
C364        C378   1.528       .  S
C365        H372   1.081       .  S
C365        C366   1.361       .  D
C366        C367   1.523       .  S
C366        C392   1.433       .  S
C367        C371   1.526       .  S
C367        C369   1.536       .  S
C367        H373   1.112       .  S
C368        H374   1.086       .  S
C368        C369   1.364       .  D
C369        C438   1.442       .  S
C370        H375   1.087       .  S
C370        C371   1.363       .  D
C371        C393   1.438       .  S
C376        C381   1.532       .  S
C376        C388   1.483       .  S
C376        C389   1.486       .  S
C376        C408   1.480       .  S
C377        C378   1.409       .  A
C377        C382   1.394       .  A
C377        H383   1.075       .  S
C378        C379   1.407       .  A
C379        C380   1.399       .  A
C379        H384   1.083       .  S
C380        C381   1.412       .  A
C380        H385   1.081       .  S
C381        C382   1.408       .  A
C382        H386   1.084       .  S
C387        C388   1.213       .  T
C389        C390   1.214       .  T
C390        C821   1.448   1_545  S
C391        C392   1.200       .  T
C393        C394   1.203       .  T
C394        C820   1.431   1_545  S
C395        C396   1.209       .  T
C397        C398   1.408       .  A
C397        H403   1.078   1_556  S
C398        C399   1.404       .  A
C399        C400   1.389       .  A
C399        H404   1.084       .  S
C400        H405   1.079       .  S
C401        C402   1.412       .  A
C402        H406   1.083       .  S
C407        C408   1.212       .  T
C409        C410   1.214       .  T
C411        C412   1.213       .  T
C412        C787   1.446       .  S
C413        C414   1.204       .  T
C414        C789   1.432       .  S
C415        C416   1.202       .  T
C417        C418   1.206   1_455  T
C419        C420   1.407       .  A
C419        C424   1.398       .  A
C419        H425   1.083       .  S
C420        C421   1.409       .  A
C421        C422   1.393       .  A
C421        H426   1.076       .  S
C422        C423   1.408       .  A
C422        H427   1.084       .  S
C423        C424   1.412       .  A
C424        H428   1.081       .  S
C429        C430   1.214       .  T
C430        C751   1.446       .  S
C431        C432   1.213       .  T
C433        C522   1.427   1_556  S
C433        C434   1.201       .  T
C435        C436   1.202       .  T
C437        C438   1.206   1_655  T
C439        C440   1.209       .  T
C441        C442   1.205       .  T
C443        C444   1.412       .  A
C443        C448   1.404       .  A
C444        C445   1.412       .  A
C445        C446   1.387       .  A
C445        H450   1.079       .  S
C446        C447   1.403       .  A
C446        H451   1.084       .  S
C447        C448   1.408       .  A
C448        H452   1.078       .  S
C453        C454   1.211       .  T
C455        C456   1.213       .  T
C456        C715   1.446   1_545  S
C457        C458   1.213       .  T
C459        C718   1.431   1_545  S
C459        C460   1.204       .  T
C461        C462   1.202       .  T
C463        C464   1.205       .  T
O465        C481   1.274       .  A
O465       Zn471   2.020       .  S
C466        O482   1.272       .  A
C466        O479   1.271       .  A
C466        C695   1.434       .  S
O467        C480   1.267       .  A
O467       Cd474   2.039       .  S
O468        C486   1.273       .  A
O468       Cd477   2.078       .  S
O469        C483   1.281       .  A
O469       Cd473   2.115       .  S
O470        C481   1.280       .  A
O470       Cd473   2.111       .  S
Zn471       O482   2.019       .  S
Zn471       O484   2.026       .  S
Zn471       O476   1.955       .  S
O472        C483   1.274       .  A
O472       Cd477   2.069       .  S
Cd473       O475   2.116       .  S
Cd473       O476   2.015       .  S
Cd474       O478   2.051       .  S
Cd474       O487   2.046       .  S
Cd474       O476   1.996       .  S
O475        C485   1.280       .  A
O476       Cd477   2.005       .  S
Cd477       O479   2.064       .  S
O478        C485   1.270       .  A
C480        O484   1.272       .  A
C480        C694   1.428       .  S
C481        C690   1.446       .  S
C485        C686   1.443       .  S
C486        O487   1.268       .  A
C488        C489   1.542       .  S
C488        C494   1.541       .  S
C488        C492   1.542       .  S
C488        C679   1.523       .  S
C489        H496   1.087       .  S
C489        C490   1.361       .  D
C490        C491   1.527       .  S
C490        C692   1.438       .  S
C491        C495   1.526       .  S
C491        C493   1.539       .  S
C491        H497   1.112       .  S
C492        H498   1.083       .  S
C492        C493   1.365       .  D
C493        C674   1.441       .  S
C494        H499   1.087       .  S
C494        C495   1.360       .  D
C495        C693   1.436       .  S
C500        C908   1.536       .  S
C500        C903   1.477       .  S
C500        C687   1.482       .  S
C500        C689   1.481       .  S
O501        C517   1.275       .  A
O501       Zn507   2.023       .  S
C502        O518   1.273       .  A
C502        O515   1.272       .  A
C502        C669   1.435       .  S
O503        C748   1.267       .  A
O503       Cd742   2.034       .  S
O504        C522   1.273       .  A
O504       Cd513   2.079       .  S
O505        C519   1.280       .  A
O505       Cd509   2.113       .  S
O506        C517   1.280       .  A
O506       Cd509   2.106       .  S
Zn507       O518   2.021       .  S
Zn507       O520   2.030       .  S
Zn507       O512   1.954       .  S
O508        C519   1.275       .  A
O508       Cd513   2.072       .  S
Cd509       O511   2.108       .  S
Cd509       O512   2.013       .  S
Cd510       O735   2.034   1_554  S
Cd510       O514   2.040       .  S
Cd510       O755   2.032   1_554  S
Cd510       O512   1.993       .  S
O511        C521   1.279       .  A
O512       Cd513   2.004       .  S
Cd513       O515   2.068       .  S
O514        C521   1.268       .  A
C516        O735   1.267   1_554  A
C516        O520   1.272       .  A
C516        C900   1.429   1_554  S
C517        C663   1.445       .  S
C521        C672   1.437       .  S
C522        O755   1.266   1_554  A
O523        C754   1.266       .  A
O523       Cd742   2.032       .  S
C524        C525   1.542       .  S
C524        C530   1.549       .  S
C524        C528   1.538       .  S
C524        C652   1.527       .  S
C525        H532   1.087       .  S
C525        C526   1.362       .  D
C526        C527   1.525       .  S
C526        C666   1.434       .  S
C527        C531   1.525       .  S
C527        C529   1.537       .  S
C527        H533   1.112       .  S
C528        H534   1.086       .  S
C528        C529   1.364       .  D
C529        C650   1.442       .  S
C530        H535   1.081       .  S
C530        C531   1.362       .  D
C531        C667   1.436       .  S
C536        C655   1.531       .  S
C536        C661   1.485       .  S
C536        C664   1.482       .  S
C536        C685   1.479       .  S
O537        C553   1.272       .  A
O537       Zn543   2.020       .  S
C538        O554   1.275       .  A
C538        O551   1.281       .  A
C538        C642   1.448       .  S
O539        C552   1.268       .  A
O539       Cd546   2.040       .  S
O540        C558   1.280       .  A
O540       Cd549   2.117       .  S
O541        C555   1.274       .  A
O541       Cd545   2.070       .  S
O542        C553   1.271       .  A
O542       Cd545   2.062       .  S
Zn543       O554   2.024       .  S
Zn543       O556   2.027       .  S
Zn543       O548   1.956       .  S
O544        C555   1.281       .  A
O544       Cd549   2.115       .  S
Cd545       O547   2.079       .  S
Cd545       O548   2.006       .  S
Cd546       O550   2.046       .  S
Cd546       O559   2.054       .  S
Cd546       O548   1.996       .  S
O547        C557   1.273       .  A
O548       Cd549   2.015       .  S
Cd549       O551   2.113       .  S
O550        C557   1.268       .  A
C552        O556   1.272       .  A
C552        C648   1.429       .  S
C553        C673   1.433       .  S
C558        O559   1.271       .  A
C558        C639   1.444       .  S
C560        C561   1.541       .  S
C560        C566   1.543       .  S
C560        C564   1.542       .  S
C560        C630   1.524       .  S
C561        H568   1.087       .  S
C561        C562   1.360       .  D
C562        C563   1.527       .  S
C562        C647   1.436       .  S
C563        C567   1.527       .  S
C563        C565   1.539       .  S
C563        H569   1.112       .  S
C564        H570   1.083       .  S
C564        C565   1.365       .  D
C565        C696   1.441       .  S
C566        H571   1.087       .  S
C566        C567   1.362       .  D
C567        C645   1.438       .  S
C572        C633   1.537       .  S
C572        C627   1.478       .  S
C572        C641   1.483       .  S
C572        C643   1.482       .  S
O573        C589   1.276       .  A
O573       Zn579   2.032       .  S
C574        O590   1.274       .  A
C574        O587   1.272       .  A
C574        C649   1.435       .  S
O575        C588   1.266       .  A
O575       Cd582   2.033       .  S
O576        C826   1.272       .  A
O576       Cd585   2.072       .  S
O577        C591   1.280       .  A
O577       Cd581   2.114       .  S
O578        C589   1.280       .  A
O578       Cd581   2.108       .  S
Zn579       O590   2.029       .  S
Zn579       O592   2.040       .  S
Zn579       O584   1.956       .  S
O580        C591   1.274       .  A
O580       Cd585   2.068       .  S
Cd581       O583   2.109       .  S
Cd581       O584   2.013       .  S
Cd582       O586   2.045       .  S
Cd582       O595   2.035       .  S
Cd582       O816   1.994   1_554  S
O583        C593   1.279       .  A
O584       Cd814   1.994       .  S
O584       Cd585   2.005       .  S
Cd585       O587   2.062       .  S
O586        C825   1.269   1_554  A
C588        O824   1.274   1_554  A
C591        C619   1.446       .  S
O592        C820   1.274       .  A
C593        O818   1.268       .  A
C593        C860   1.438       .  S
C594        O808   1.272   1_554  A
C594        O595   1.267       .  A
C594        C623   1.425       .  S
C596        C597   1.548       .  S
C596        C602   1.543       .  S
C596        C600   1.539       .  S
C596        C610   1.528       .  S
C597        H604   1.081       .  S
C597        C598   1.361       .  D
C598        C599   1.524       .  S
C598        C624   1.433       .  S
C599        C603   1.526       .  S
C599        C601   1.536       .  S
C599        H605   1.112       .  S
C600        H606   1.086       .  S
C600        C601   1.364       .  D
C601        C670   1.442       .  S
C602        H607   1.087       .  S
C602        C603   1.363       .  D
C603        C625   1.438       .  S
C608        C613   1.532       .  S
C608        C620   1.483       .  S
C608        C621   1.486       .  S
C608        C640   1.480       .  S
C609        C610   1.409       .  A
C609        C614   1.394       .  A
C609        H615   1.075       .  S
C610        C611   1.407       .  A
C611        C612   1.399       .  A
C611        H616   1.083       .  S
C612        C613   1.412       .  A
C612        H617   1.081       .  S
C613        C614   1.408       .  A
C614        H618   1.084       .  S
C619        C620   1.213       .  T
C621        C622   1.214       .  T
C623        C624   1.200       .  T
C625        C626   1.203       .  T
C627        C628   1.210       .  T
C628        C825   1.439   1_554  S
C629        C630   1.409       .  A
C629        C866   1.404       .  A
C629        H635   1.078       .  S
C630        C631   1.404       .  A
C631        C632   1.389       .  A
C631        H636   1.084       .  S
C632        C865   1.412       .  A
C632        H637   1.079       .  S
C633        C864   1.412   1_554  A
C633        C634   1.412       .  A
C634        C861   1.404   1_554  A
C634        H638   1.083       .  S
C639        C640   1.212       .  T
C641        C642   1.214       .  T
C643        C644   1.213       .  T
C645        C646   1.204       .  T
C647        C648   1.202       .  T
C649        C650   1.206   1_455  T
C651        C652   1.407       .  A
C651        C656   1.398       .  A
C651        H657   1.083       .  S
C652        C653   1.409       .  A
C653        C654   1.393       .  A
C653        H658   1.076       .  S
C654        C655   1.408       .  A
C654        H659   1.084       .  S
C655        C656   1.412       .  A
C656        H660   1.081       .  S
C661        C662   1.214       .  T
C663        C664   1.213       .  T
C665        C666   1.201       .  T
C667        C668   1.202       .  T
C668        C748   1.429       .  S
C669        C670   1.206   1_655  T
C671        C732   1.477       .  S
C671        C672   1.209   1_556  T
C673        C674   1.205       .  T
C675        C676   1.412       .  A
C675        C680   1.404       .  A
C675        H913   1.083   1_554  S
C676        C732   1.536   1_554  S
C676        C677   1.412       .  A
C677        C678   1.387       .  A
C677        H682   1.079       .  S
C678        C679   1.403       .  A
C678        H683   1.084       .  S
C679        C680   1.408       .  A
C680        H684   1.078       .  S
H681        C907   1.083       .  S
C685        C686   1.211       .  T
C687        C688   1.213       .  T
C689        C690   1.213       .  T
C691        C692   1.204       .  T
C693        C694   1.202       .  T
C695        C696   1.205       .  T
O697        C713   1.274       .  A
O697       Zn703   2.020       .  S
C698        O714   1.272       .  A
C698        O711   1.271       .  A
C698        C927   1.434       .  S
O699        C712   1.267       .  A
O699       Cd706   2.039       .  S
O700        C718   1.273       .  A
O700       Cd709   2.078       .  S
O701        C715   1.281       .  A
O701       Cd705   2.115       .  S
O702        C713   1.280       .  A
O702       Cd705   2.111       .  S
Zn703       O714   2.019       .  S
Zn703       O716   2.026       .  S
Zn703       O708   1.955       .  S
O704        C715   1.274       .  A
O704       Cd709   2.069       .  S
Cd705       O707   2.116       .  S
Cd705       O708   2.015       .  S
Cd706       O710   2.051       .  S
Cd706       O719   2.046       .  S
Cd706       O708   1.996       .  S
O707        C717   1.280       .  A
O708       Cd709   2.005       .  S
Cd709       O711   2.064       .  S
O710        C717   1.270       .  A
C712        O716   1.272       .  A
C712        C926   1.428       .  S
C713        C922   1.446       .  S
C717        C918   1.443       .  S
C718        O719   1.268       .  A
C720        C721   1.542       .  S
C720        C726   1.541       .  S
C720        C724   1.542       .  S
C720        C911   1.522       .  S
C721        H728   1.087       .  S
C721        C722   1.361       .  D
C722        C723   1.528       .  S
C722        C924   1.438       .  S
C723        C727   1.526       .  S
C723        C725   1.539       .  S
C723        H729   1.112       .  S
C724        H730   1.083       .  S
C724        C725   1.365       .  D
C725        C906   1.441       .  S
C726        H731   1.087       .  S
C726        C727   1.360       .  D
C727        C925   1.436       .  S
C732        C919   1.482       .  S
C732        C921   1.482       .  S
O733        C749   1.275       .  A
O733       Zn739   2.023       .  S
C734        O750   1.273       .  A
C734        O747   1.272       .  A
C734        C901   1.435       .  S
O736        C754   1.273       .  A
O736       Cd745   2.079       .  S
O737        C751   1.280       .  A
O737       Cd741   2.113       .  S
O738        C749   1.280       .  A
O738       Cd741   2.106       .  S
Zn739       O750   2.021       .  S
Zn739       O752   2.030       .  S
Zn739       O744   1.954       .  S
O740        C751   1.275       .  A
O740       Cd745   2.072       .  S
Cd741       O743   2.108       .  S
Cd741       O744   2.013       .  S
Cd742       O746   2.040       .  S
Cd742       O744   1.993       .  S
O743        C753   1.279       .  A
O744       Cd745   2.004       .  S
Cd745       O747   2.068       .  S
O746        C753   1.268       .  A
C748        O752   1.272       .  A
C749        C895   1.445       .  S
C753        C904   1.437       .  S
C756        C757   1.542       .  S
C756        C762   1.549       .  S
C756        C760   1.538       .  S
C756        C884   1.527       .  S
C757        H764   1.087       .  S
C757        C758   1.362       .  D
C758        C759   1.525       .  S
C758        C898   1.434       .  S
C759        C763   1.525       .  S
C759        C761   1.537       .  S
C759        H765   1.112       .  S
C760        H766   1.086       .  S
C760        C761   1.364       .  D
C761        C882   1.442       .  S
C762        H767   1.081       .  S
C762        C763   1.362       .  D
C763        C899   1.436       .  S
C768        C887   1.531       .  S
C768        C893   1.485       .  S
C768        C896   1.482       .  S
C768        C917   1.479       .  S
O769        C785   1.272       .  A
O769       Zn775   2.020       .  S
C770        O786   1.275       .  A
C770        O783   1.281       .  A
C770        C874   1.448       .  S
O771        C784   1.268       .  A
O771       Cd778   2.040       .  S
O772        C790   1.280       .  A
O772       Cd781   2.117       .  S
O773        C787   1.274       .  A
O773       Cd777   2.070       .  S
O774        C785   1.271       .  A
O774       Cd777   2.062       .  S
Zn775       O786   2.023       .  S
Zn775       O788   2.026       .  S
Zn775       O780   1.956       .  S
O776        C787   1.281       .  A
O776       Cd781   2.115       .  S
Cd777       O779   2.079       .  S
Cd777       O780   2.006       .  S
Cd778       O782   2.046       .  S
Cd778       O791   2.054       .  S
Cd778       O780   1.997       .  S
O779        C789   1.273       .  A
O780       Cd781   2.015       .  S
Cd781       O783   2.113       .  S
O782        C789   1.268       .  A
C784        O788   1.272       .  A
C784        C880   1.429       .  S
C785        C905   1.433       .  S
C790        O791   1.271       .  A
C790        C871   1.444       .  S
C792        C793   1.541       .  S
C792        C798   1.543       .  S
C792        C796   1.542       .  S
C792        C862   1.524       .  S
C793        H800   1.087       .  S
C793        C794   1.360       .  D
C794        C795   1.527       .  S
C794        C879   1.436       .  S
C795        C799   1.527       .  S
C795        C797   1.539       .  S
C795        H801   1.112       .  S
C796        H802   1.083       .  S
C796        C797   1.365       .  D
C797        C928   1.441       .  S
C798        H803   1.087       .  S
C798        C799   1.362       .  D
C799        C877   1.438       .  S
C804        C865   1.537       .  S
C804        C859   1.478       .  S
C804        C873   1.483       .  S
C804        C875   1.482       .  S
O805        C821   1.276       .  A
O805       Zn811   2.031       .  S
C806        O822   1.274       .  A
C806        O819   1.272       .  A
C806        C881   1.435       .  S
O807        C820   1.266       .  A
O807       Cd814   2.033       .  S
O808       Cd817   2.072       .  S
O809        C823   1.280       .  A
O809       Cd813   2.114       .  S
O810        C821   1.280       .  A
O810       Cd813   2.108       .  S
Zn811       O822   2.029       .  S
Zn811       O824   2.040       .  S
Zn811       O816   1.956       .  S
O812        C823   1.274       .  A
O812       Cd817   2.068       .  S
Cd813       O815   2.109       .  S
Cd813       O816   2.013       .  S
Cd814       O818   2.045       .  S
Cd814       O827   2.035       .  S
O815        C825   1.280       .  A
O816       Cd817   2.004       .  S
Cd817       O819   2.061       .  S
C823        C851   1.446       .  S
C826        O827   1.267       .  A
C826        C855   1.425       .  S
C828        C829   1.548       .  S
C828        C834   1.543       .  S
C828        C832   1.539       .  S
C828        C842   1.528       .  S
C829        H836   1.081       .  S
C829        C830   1.361       .  D
C830        C831   1.523       .  S
C830        C856   1.433       .  S
C831        C835   1.526       .  S
C831        C833   1.536       .  S
C831        H837   1.112       .  S
C832        H838   1.086       .  S
C832        C833   1.364       .  D
C833        C902   1.442       .  S
C834        H839   1.087       .  S
C834        C835   1.363       .  D
C835        C857   1.438       .  S
C840        C845   1.532       .  S
C840        C852   1.483       .  S
C840        C853   1.486       .  S
C840        C872   1.480       .  S
C841        C842   1.409       .  A
C841        C846   1.394       .  A
C841        H847   1.075       .  S
C842        C843   1.407       .  A
C843        C844   1.399       .  A
C843        H848   1.083       .  S
C844        C845   1.412       .  A
C844        H849   1.081       .  S
C845        C846   1.408       .  A
C846        H850   1.084       .  S
C851        C852   1.213       .  T
C853        C854   1.214       .  T
C855        C856   1.200       .  T
C857        C858   1.203       .  T
C859        C860   1.209       .  T
C861        C862   1.408       .  A
C861        H867   1.078   1_556  S
C862        C863   1.404       .  A
C863        C864   1.389       .  A
C863        H868   1.084       .  S
C864        H869   1.079       .  S
C865        C866   1.412       .  A
C866        H870   1.083       .  S
C871        C872   1.212       .  T
C873        C874   1.214       .  T
C875        C876   1.213       .  T
C877        C878   1.204       .  T
C879        C880   1.202       .  T
C881        C882   1.206   1_455  T
C883        C884   1.407       .  A
C883        C888   1.398       .  A
C883        H889   1.083       .  S
C884        C885   1.409       .  A
C885        C886   1.393       .  A
C885        H890   1.076       .  S
C886        C887   1.408       .  A
C886        H891   1.084       .  S
C887        C888   1.412       .  A
C888        H892   1.081       .  S
C893        C894   1.214       .  T
C895        C896   1.213       .  T
C897        C898   1.201       .  T
C899        C900   1.202       .  T
C901        C902   1.206   1_655  T
C903        C904   1.209       .  T
C905        C906   1.205       .  T
C907        C908   1.412       .  A
C907        C912   1.404       .  A
C908        C909   1.412       .  A
C909        C910   1.387       .  A
C909        H914   1.079       .  S
C910        C911   1.403       .  A
C910        H915   1.084       .  S
C911        C912   1.408       .  A
C912        H916   1.078       .  S
C917        C918   1.211       .  T
C919        C920   1.213       .  T
C921        C922   1.213       .  T
C923        C924   1.204       .  T
C925        C926   1.202       .  T
C927        C928   1.205       .  T
