geometry optimzed in LAMMPS
_audit_creation_date              2020-11-30 
_audit_creation_method            'lammps2cif' 
_symmetry_space_group_name_H-M    'P1' 
_symmetry_Int_Tables_number       1 
_symmetry_cell_setting            triclinic 
loop_ 
_symmetry_equiv_pos_as_xyz 
  x,y,z 
_cell_length_a                    26.0959787 
_cell_length_b                    26.09800713722725 
_cell_length_c                    25.986375892144494 
_cell_angle_alpha                 89.96120422645511 
_cell_angle_beta                  89.91444125026634 
_cell_angle_gamma                 90.02526467085038 
loop_ 
_atom_site_label 
_atom_site_type_symbol 
_atom_site_fract_x 
_atom_site_fract_y 
_atom_site_fract_z 
_atom_site_charge 
N1          N  0.99619105  0.49927888  0.42090857    -0.36000
N2          N  0.00065974  0.57852894  0.49902437    -0.56600
N3          N  0.99698350  0.49991828  0.57870793    -0.36000
N4          N  0.98674566  0.42078446  0.50081235    -0.56600
C5          C  0.99033705  0.54139268  0.39103320     0.27600
C6          C  0.98388208  0.45805823  0.39191482     0.27600
C7          C  0.99291350  0.54223429  0.60837636     0.27600
C8          C  0.98661740  0.45902873  0.60895327     0.27600
C9          C  0.00830205  0.60833607  0.45718023     0.36200
C10         C  0.00795546  0.60881746  0.54047822     0.36200
C11         C  0.99126688  0.39001713  0.45932455     0.36200
C12         C  0.99268723  0.39039500  0.54249215     0.36200
C13         C  0.97480465  0.52663675  0.34223540    -0.21300
C14         C  0.97111667  0.47410313  0.34266973    -0.21300
C15         C  0.98086400  0.52782451  0.65841309    -0.21300
C16         C  0.97647709  0.47543230  0.65864927    -0.21300
C17         C  0.02021888  0.65789118  0.47214633    -0.22400
C18         C  0.01932403  0.65836347  0.52482434    -0.22400
C19         C  0.99865601  0.33967490  0.47476319    -0.22400
C20         C  0.99994864  0.33998648  0.52744729    -0.22400
C21         C  0.00082126  0.59263809  0.40566380    -0.17700
C22         C  0.98691617  0.40617459  0.40763723    -0.17700
C23         C  0.98987314  0.40704864  0.59409728    -0.17700
C24         C  0.00192188  0.59334220  0.59230188    -0.17700
H25         H  0.96740395  0.55112906  0.30945201     0.15200
H26         H  0.96047964  0.45048748  0.31019036     0.15200
H27         H  0.97620029  0.55231939  0.69165677     0.15200
H28         H  0.96778973  0.45200591  0.69193350     0.15200
H29         H  0.02762193  0.69067229  0.44771319     0.13500
H30         H  0.02590237  0.69164460  0.54872733     0.13500
H31         H  0.00283852  0.30613712  0.45065568     0.13500
H32         H  0.00542399  0.30681548  0.55184454     0.13500
H33         H  0.01326837  0.49810509  0.45684187     0.26700
H34         H  0.01171701  0.49858481  0.54175962     0.26700
O35         O  0.99375630  0.14592987  0.08413789    -0.79600
O36         O  0.00363616  0.85345332  0.08187142    -0.81100
O37         O  0.91711190  0.99599397  0.14710285    -0.78100
O38         O  0.08764914  0.99916165  0.14401721    -0.76500
O39         O  0.14798558  0.00487882  0.08079206    -0.78300
O40         O  0.85513172  0.99422365  0.08498747    -0.79200
O41         O  0.00541795  0.91433409  0.14518969    -0.80600
O42         O  0.99997236  0.08423617  0.14607064    -0.80800
Eu43       Eu  0.00154814  0.99942926  0.10420649     2.39200
O44         O  0.05312601  0.94924551  0.05001336    -0.88400
O45         O  0.94776920  0.05094342  0.05301607    -0.92000
C46         C  0.99598889  0.13146033  0.13153441     1.02700
C47         C  0.00528291  0.86734888  0.12948881     1.02500
C48         C  0.86983689  0.99376755  0.13236451     1.02500
C49         C  0.13470321  0.00221649  0.12849686     1.00300
H50         H  0.92861323  0.92481077  0.07316848     0.30100
O51         O  0.94940843  0.94708753  0.05196729    -1.00700
H52         H  0.07272907  0.07513592  0.07305913     0.30100
O53         O  0.05163381  0.05334833  0.05176998    -1.03300
O54         O  0.99943282  0.85565987  0.91336567    -0.80500
O55         O  0.00191447  0.14594167  0.91591842    -0.80100
O56         O  0.85509923  0.91463471  0.99561376    -0.78500
O57         O  0.14685267  0.91975884  0.00101205    -0.81800
O58         O  0.14343970  0.08841001  0.99651636    -0.79700
O59         O  0.85196951  0.08182854  0.00341558    -0.78300
O60         O  0.91478226  0.99762291  0.85354914    -0.79900
O61         O  0.08419583  0.00655610  0.85194534    -0.81800
O62         O  0.85335574  0.99863163  0.91678421    -0.78500
O63         O  0.14615162  0.00437053  0.91375726    -0.81200
O64         O  0.91730573  0.85322851  0.99725096    -0.76900
O65         O  0.91254050  0.14424406  0.99771294    -0.77000
O66         O  0.08059637  0.14898385  0.00136459    -0.76600
O67         O  0.08636290  0.85667572  0.99752808    -0.80100
O68         O  0.00320956  0.91738419  0.85148162    -0.79500
O69         O  0.99854917  0.08542270  0.85256715    -0.77900
Eu70       Eu  0.00128437  0.89680815  0.99807885     2.39800
Eu71       Eu  0.99786938  0.10403179  0.00001282     2.39600
Eu72       Eu  0.89648414  0.99886580  0.00035138     2.38400
Eu73       Eu  0.10362675  0.00296901  0.99797138     2.39900
Eu74       Eu  0.99973534  0.00119954  0.89437124     2.39800
O75         O  0.05051238  0.05406180  0.94664020    -0.92300
O76         O  0.94854228  0.94841333  0.94674903    -0.91200
C77         C  0.00166800  0.87007990  0.86594164     1.02900
C78         C  0.00065566  0.13226241  0.86827247     1.01600
C79         C  0.86990257  0.86748265  0.99560436     1.01000
C80         C  0.13324877  0.87225390  0.00004159     1.03000
C81         C  0.12807891  0.13537839  0.99884738     1.01900
C82         C  0.86543191  0.12933524  0.00069374     1.00800
C83         C  0.86786435  0.99751858  0.86938080     1.00800
C84         C  0.13156730  0.00664579  0.86640306     1.03500
H85         H  0.92476114  0.07321862  0.92595544     0.30800
O86         O  0.94665180  0.05201961  0.94720569    -1.04400
H87         H  0.07476343  0.92880220  0.92410809     0.32900
O88         O  0.05292091  0.94959231  0.94571519    -1.07000
N89         N  0.50170849  0.98447247  0.42148453    -0.36000
N90         N  0.57963379  0.98741986  0.50087122    -0.56600
N91         N  0.50078619  0.00134348  0.57787576    -0.36000
N92         N  0.42284249  0.00216547  0.49879519    -0.56600
C93         C  0.54445103  0.98962117  0.39236027     0.27600
C94         C  0.46119966  0.99563406  0.39112127     0.27600
C95         C  0.54343489  0.01243518  0.60522467     0.27600
C96         C  0.46026411  0.02006103  0.60434484     0.27600
C97         C  0.60835101  0.97165967  0.46064253     0.36200
C98         C  0.60721223  0.97772479  0.54369131     0.36200
C99         C  0.39268655  0.99185840  0.45788738     0.36200
C100        C  0.39225267  0.00038310  0.54076602     0.36200
C101        C  0.53086312  0.00331992  0.34266411    -0.21300
C102        C  0.47830209  0.00674540  0.34177927    -0.21300
C103        C  0.52985679  0.03895572  0.64944993    -0.21300
C104        C  0.47723364  0.04339956  0.64908052    -0.21300
C105        C  0.65449049  0.95187666  0.47777680    -0.22400
C106        C  0.65350355  0.95505287  0.53057427    -0.22400
C107        C  0.34253532  0.98425858  0.47383673    -0.22400
C108        C  0.34233427  0.98924378  0.52646293    -0.22400
C109        C  0.59507044  0.97912324  0.40862445    -0.17700
C110        C  0.40911187  0.99342293  0.40608337    -0.17700
C111        C  0.40827072  0.01232291  0.59125960    -0.17700
C112        C  0.59343088  0.99475249  0.59349353    -0.17700
H113        H  0.55611282  0.00945254  0.31015512     0.15200
H114        H  0.45536370  0.01613092  0.30842714     0.15200
H115        H  0.55511010  0.05237292  0.67957550     0.15200
H116        H  0.45400784  0.06101701  0.67872856     0.15200
H117        H  0.68571814  0.93725067  0.45460039     0.13500
H118        H  0.68409189  0.94365499  0.55621439     0.13500
H119        H  0.30945107  0.97647688  0.45002452     0.13500
H120        H  0.30906725  0.98610336  0.55119151     0.13500
H121        H  0.49980676  0.96904372  0.45828596     0.26700
H122        H  0.49879298  0.97624937  0.54687936     0.26700
N123        N  0.49615194  0.42335423  0.99857269    -0.36000
N124        N  0.57751586  0.49979350  0.00168214    -0.56600
N125        N  0.50064169  0.58077372  0.00233779    -0.36000
N126        N  0.41927255  0.50419873  0.00433204    -0.56600
C127        C  0.53700984  0.39290495  0.00859068     0.27600
C128        C  0.45339109  0.39524550  0.00719132     0.27600
C129        C  0.54360628  0.60909426  0.00862982     0.27600
C130        C  0.46013758  0.61147979  0.01264187     0.27600
C131        C  0.60637520  0.45735606  0.99438817     0.36200
C132        C  0.60854392  0.54045043  0.99298259     0.36200
C133        C  0.38753118  0.46389448  0.99693263     0.36200
C134        C  0.38984816  0.54680448  0.00252540     0.36200
C135        C  0.51984616  0.34470923  0.02318213    -0.21300
C136        C  0.46717909  0.34623119  0.02242346    -0.21300
C137        C  0.53023764  0.65862803  0.02252556    -0.21300
C138        C  0.47765547  0.66023307  0.02471688    -0.21300
C139        C  0.65618121  0.47119503  0.98200081    -0.22400
C140        C  0.65740985  0.52371802  0.98057794    -0.22400
C141        C  0.33757089  0.48098351  0.99108529    -0.22400
C142        C  0.33895280  0.53337201  0.99523465    -0.22400
C143        C  0.58924778  0.40631686  0.00146068    -0.17700
C144        C  0.40221665  0.41169072  0.99956100    -0.17700
C145        C  0.40774117  0.59769200  0.00877404    -0.17700
C146        C  0.59444683  0.59251906  0.99911744    -0.17700
H147        H  0.54277548  0.31154753  0.03281178     0.15200
H148        H  0.44189704  0.31464322  0.03170948     0.15200
H149        H  0.55569375  0.69059611  0.02965135     0.15200
H150        H  0.45501409  0.69377266  0.03375637     0.15200
H151        H  0.68846545  0.44616776  0.97491982     0.13500
H152        H  0.69077068  0.54691973  0.97217365     0.13500
H153        H  0.30344063  0.45806967  0.98560121     0.13500
H154        H  0.30612029  0.55861454  0.99321285     0.13500
H155        H  0.49727659  0.45902301  0.98098707     0.26700
H156        H  0.49897551  0.54447842  0.98640399     0.26700
C157        C  0.67462303  0.70545645  0.95107724    -0.04900
C158        C  0.71181492  0.70950951  0.99018912     0.09300
C159        C  0.71111403  0.67481589  0.03186148    -0.02300
C160        C  0.67231393  0.63736836  0.03542185    -0.00500
C161        C  0.63554844  0.63257723  0.99582272    -0.04100
C162        C  0.63716031  0.66651894  0.95339015     0.02900
C163        C  0.75112030  0.75125614  0.98877086     0.09700
C164        C  0.75066973  0.67773265  0.07093095     0.35600
C165        C  0.59991550  0.66148980  0.91231665     0.39000
C166        C  0.74333537  0.79635114  0.01745955    -0.04500
C167        C  0.78226444  0.83375958  0.02051517     0.02600
C168        C  0.82919713  0.82702283  0.99356146    -0.04100
C169        C  0.83625378  0.78185613  0.96393331    -0.00300
C170        C  0.79724043  0.74441562  0.96143957    -0.02900
C171        C  0.69485885  0.80415137  0.04377764     0.36400
C172        C  0.88328434  0.77355477  0.93537250     0.40000
C173        C  0.77441340  0.87791048  0.05353475     0.39100
C174        C  0.80425451  0.69877173  0.93036799     0.36000
C175        C  0.67465765  0.74175163  0.90881225     0.36700
C176        C  0.66941222  0.60464022  0.08045737     0.40000
N177        N  0.76785018  0.91291901  0.08004492    -0.38100
N178        N  0.65599999  0.81028452  0.06438481    -0.39700
N179        N  0.92074822  0.76618792  0.91270925    -0.37400
N180        N  0.80960065  0.66253331  0.90529089    -0.39800
N181        N  0.78263645  0.68016054  0.10165560    -0.39600
N182        N  0.66696687  0.57872287  0.11653132    -0.37200
N183        N  0.56995878  0.65733639  0.87979083    -0.38300
N184        N  0.67457747  0.77082115  0.87516268    -0.39900
C185        C  0.68808613  0.30919989  0.95349638    -0.04900
C186        C  0.70568947  0.28761246  0.00010738     0.09300
C187        C  0.68436287  0.30438650  0.04720649    -0.02300
C188        C  0.64675965  0.34330103  0.04777161    -0.00500
C189        C  0.62863525  0.36436513  0.00110712    -0.04100
C190        C  0.64916258  0.34677124  0.95395226     0.02900
C191        C  0.74668627  0.24711418  0.99970012     0.09700
C192        C  0.70093656  0.28117148  0.09510407     0.35600
C193        C  0.63083495  0.36819143  0.90586904     0.39000
C194        C  0.79658650  0.25867800  0.01686263    -0.04500
C195        C  0.83460010  0.22021002  0.01877990     0.02600
C196        C  0.82405313  0.16973215  0.00086665    -0.04100
C197        C  0.77364429  0.15865189  0.98296774    -0.00300
C198        C  0.73533754  0.19696823  0.98307929    -0.02900
C199        C  0.80900182  0.31061784  0.03246648     0.36400
C200        C  0.76034429  0.10809682  0.96389268     0.40000
C201        C  0.88395933  0.23300116  0.04109692     0.39100
C202        C  0.68374840  0.18478573  0.96617849     0.36000
C203        C  0.71054858  0.29309625  0.90505456     0.36700
C204        C  0.62700204  0.36204069  0.09642706     0.40000
N205        N  0.92325094  0.24349904  0.05880885    -0.38100
N206        N  0.81917933  0.35194415  0.04493384    -0.39700
N207        N  0.74927266  0.06782637  0.94891308    -0.37400
N208        N  0.64261571  0.17531851  0.95257003    -0.39800
N209        N  0.71429654  0.26246575  0.13317874    -0.39600
N210        N  0.61131367  0.37696475  0.13530116    -0.37200
N211        N  0.61637063  0.38553217  0.86755666    -0.38300
N212        N  0.72849778  0.28007413  0.86647290    -0.39900
C213        C  0.30971044  0.69586215  0.96376517    -0.04900
C214        C  0.29469611  0.71861885  0.01074120     0.09300
C215        C  0.31715827  0.70198526  0.05729293    -0.02300
C216        C  0.35304996  0.66158463  0.05693841    -0.00500
C217        C  0.36891778  0.63979129  0.00979325    -0.04100
C218        C  0.34773937  0.65766921  0.96319397     0.02900
C219        C  0.25412638  0.75911731  0.01079454     0.09700
C220        C  0.30331306  0.72655334  0.10541984     0.35600
C221        C  0.36481378  0.63626877  0.91460962     0.39000
C222        C  0.20510714  0.74840730  0.03099567    -0.04500
C223        C  0.16622475  0.78579123  0.02914239     0.02600
C224        C  0.17460675  0.83281077  0.00288010    -0.04100
C225        C  0.22349121  0.84238410  0.98078563    -0.00300
C226        C  0.26370405  0.80704374  0.98762296    -0.02900
C227        C  0.19447563  0.69856294  0.05345854     0.36400
C228        C  0.23221734  0.88692613  0.94838938     0.40000
C229        C  0.11829751  0.77563807  0.05567990     0.39100
C230        C  0.31525934  0.82004817  0.97109581     0.36000
C231        C  0.28516782  0.71103530  0.91604033     0.36700
C232        C  0.37331119  0.64198132  0.10499387     0.40000
N233        N  0.08044246  0.76682111  0.07718225    -0.38100
N234        N  0.18596923  0.65888516  0.07145965    -0.39700
N235        N  0.23944691  0.92190449  0.92193518    -0.37400
N236        N  0.35650835  0.83048535  0.95845724    -0.39800
N237        N  0.29201790  0.74627014  0.14367155    -0.39600
N238        N  0.38931645  0.62611382  0.14332980    -0.37200
N239        N  0.37847094  0.61921239  0.87585791    -0.38300
N240        N  0.26545855  0.72324107  0.87809925    -0.39900
C241        C  0.19772569  0.26189540  0.97201362    -0.04900
C242        C  0.24490696  0.25351289  0.99685673     0.09300
C243        C  0.25379773  0.20698337  0.02271815    -0.02300
C244        C  0.21530770  0.16911166  0.02466726    -0.00500
C245        C  0.16802787  0.17655125  0.99868469    -0.04100
C246        C  0.15963684  0.22347725  0.97224514     0.02900
C247        C  0.28501524  0.29439698  0.99708120     0.09700
C248        C  0.30281820  0.19839111  0.04761211     0.35600
C249        C  0.11245230  0.23247404  0.94418245     0.39000
C250        C  0.29020999  0.32665973  0.04026817    -0.04500
C251        C  0.32855952  0.36464285  0.04113511     0.02600
C252        C  0.36115017  0.37153707  0.99821474    -0.04100
C253        C  0.35618737  0.33878958  0.95509860    -0.00300
C254        C  0.31867012  0.29982866  0.95492640    -0.02900
C255        C  0.25673425  0.31981547  0.08434662     0.36400
C256        C  0.39011891  0.34460693  0.91123101     0.40000
C257        C  0.33550653  0.39574810  0.08681201     0.39100
C258        C  0.31571418  0.26397855  0.91236194     0.36000
C259        C  0.18838892  0.31043876  0.94641149     0.36700
C260        C  0.22411507  0.12366238  0.05555290     0.40000
N261        N  0.34121639  0.42051983  0.12326879    -0.38100
N262        N  0.23016424  0.31401168  0.11956371    -0.39700
N263        N  0.41714190  0.34875003  0.87611671    -0.37400
N264        N  0.31344556  0.23482918  0.87889095    -0.39800
N265        N  0.34204261  0.19187138  0.06726840    -0.39600
N266        N  0.23175251  0.08781729  0.08059969    -0.37200
N267        N  0.07499494  0.24039474  0.92176661    -0.38300
N268        N  0.18097584  0.34922512  0.92614000    -0.39900
C269        C  0.77809644  0.94977955  0.76549860    -0.04900
C270        C  0.75019343  0.99478343  0.75374272     0.09300
C271        C  0.76103322  0.04058027  0.78087786    -0.02300
C272        C  0.80107730  0.04186320  0.81718484    -0.00500
C273        C  0.82727468  0.99645686  0.83004437    -0.04100
C274        C  0.81447246  0.95006951  0.80552927     0.02900
C275        C  0.70999748  0.99426367  0.71243880     0.09700
C276        C  0.73090921  0.08638950  0.77176550     0.35600
C277        C  0.83766989  0.90248059  0.82262104     0.39000
C278        C  0.66476132  0.96498859  0.71853304    -0.04500
C279        C  0.62736228  0.96436368  0.67938592     0.02600
C280        C  0.63343282  0.99516508  0.63497507    -0.04100
C281        C  0.67797927  0.02565181  0.62968977    -0.00300
C282        C  0.71698599  0.02342075  0.66710379    -0.02900
C283        C  0.65673068  0.93508526  0.76495476     0.36400
C284        C  0.68344698  0.05985698  0.58596907     0.40000
C285        C  0.58270309  0.93163597  0.68471321     0.39100
C286        C  0.76504403  0.05003360  0.65828201     0.36000
C287        C  0.77052834  0.90355773  0.73551243     0.36700
C288        C  0.81628756  0.09009001  0.84045526     0.40000
N289        N  0.54696190  0.90572403  0.68904547    -0.38100
N290        N  0.65040492  0.91075029  0.80167004    -0.39700
N291        N  0.68762366  0.08704791  0.55101349    -0.37400
N292        N  0.80354617  0.07093903  0.65125608    -0.39800
N293        N  0.70701557  0.12308606  0.76480333    -0.39600
N294        N  0.82900921  0.12851830  0.85862858    -0.37200
N295        N  0.85572232  0.86455593  0.83690314    -0.38300
N296        N  0.76477866  0.86674438  0.71139856    -0.39900
C297        C  0.20476433  0.98642648  0.74006926    -0.04900
C298        C  0.25005577  0.01433615  0.74924091     0.09300
C299        C  0.25681264  0.03966320  0.79651802    -0.02300
C300        C  0.21821564  0.03763758  0.83456701    -0.00500
C301        C  0.17232316  0.00954748  0.82578702    -0.04100
C302        C  0.16606892  0.98388560  0.77800669     0.02900
C303        C  0.29176617  0.01521698  0.70970182     0.09700
C304        C  0.30415383  0.06727250  0.80608029     0.35600
C305        C  0.12072213  0.95329921  0.76795253     0.39000
C306        C  0.29614265  0.05667220  0.67504955    -0.04500
C307        C  0.33445563  0.05626237  0.63662246     0.02600
C308        C  0.36890966  0.01461833  0.63314128    -0.04100
C309        C  0.36495796  0.97367113  0.66853082    -0.00300
C310        C  0.32658887  0.97404001  0.70671030    -0.02900
C311        C  0.26104584  0.09957531  0.67899611     0.36400
C312        C  0.39949328  0.93032515  0.66461813     0.40000
C313        C  0.33793383  0.09819051  0.60015085     0.39100
C314        C  0.32257124  0.93190609  0.74294343     0.36000
C315        C  0.19859287  0.95943933  0.69165232     0.36700
C316        C  0.22602678  0.06553503  0.88219522     0.40000
N317        N  0.34038505  0.13147716  0.57080159    -0.38100
N318        N  0.23313285  0.13385722  0.68244042    -0.39700
N319        N  0.42697811  0.89570286  0.66132148    -0.37400
N320        N  0.31908563  0.89844169  0.77198020    -0.39800
N321        N  0.34207818  0.08907562  0.81336750    -0.39600
N322        N  0.23307386  0.08780445  0.92002134    -0.37200
N323        N  0.08462267  0.92896462  0.75949891    -0.38300
N324        N  0.19403320  0.93779285  0.65307648    -0.39900
C325        C  0.30985224  0.95214672  0.30700963    -0.04900
C326        C  0.29507259  0.99988034  0.28584971     0.09300
C327        C  0.31791997  0.04542055  0.30442353    -0.02300
C328        C  0.35416959  0.04327977  0.34451427    -0.00500
C329        C  0.36939328  0.99556074  0.36489421    -0.04100
C330        C  0.34774041  0.94997789  0.34558357     0.02900
C331        C  0.25472951  0.00214367  0.24475544     0.09700
C332        C  0.30415351  0.09456910  0.28233609     0.35600
C333        C  0.36482727  0.90088397  0.36534294     0.34500
C334        C  0.20610832  0.02308963  0.25575402    -0.04500
C335        C  0.16767420  0.02449462  0.21763074     0.02600
C336        C  0.17657234  0.00293826  0.16822993    -0.04100
C337        C  0.22599366  0.98246375  0.15723059    -0.00300
C338        C  0.26484974  0.98289529  0.19504638    -0.02900
C339        C  0.19554713  0.04347495  0.30664222     0.36400
C340        C  0.23752629  0.96012231  0.10737765     0.40000
C341        C  0.11965694  0.05002858  0.22936031     0.39100
C342        C  0.31560739  0.96357261  0.18272121     0.36000
C343        C  0.28549396  0.90527953  0.28966330     0.36700
C344        C  0.37643251  0.09012805  0.36459039     0.40000
N345        N  0.08153426  0.07055639  0.23900812    -0.38100
N346        N  0.18730262  0.06020049  0.34704444    -0.39700
N347        N  0.24736144  0.94264317  0.06765011    -0.37400
N348        N  0.35597807  0.94803052  0.17286043    -0.39800
N349        N  0.29300347  0.13390728  0.26510330    -0.39600
N350        N  0.39442381  0.12732724  0.38071581    -0.37200
N351        N  0.37880054  0.86181790  0.38105367    -0.38300
N352        N  0.26609628  0.86787105  0.27581983    -0.39900
C353        C  0.74369536  0.01184061  0.20502093    -0.04900
C354        C  0.75154072  0.98085407  0.24876027     0.09300
C355        C  0.79746683  0.95280857  0.25360922    -0.02300
C356        C  0.83561391  0.95613607  0.21518694    -0.00500
C357        C  0.82917556  0.98949948  0.17261705    -0.04100
C358        C  0.78277201  0.01738027  0.16787521     0.02900
C359        C  0.71210076  0.97951019  0.29069105     0.09700
C360        C  0.80551744  0.92055285  0.29836520     0.35600
C361        C  0.77550678  0.05333662  0.12590651     0.39000
C362        C  0.67965806  0.93657153  0.29664164    -0.04500
C363        C  0.64262454  0.93569581  0.33625668     0.02600
C364        C  0.63673050  0.97836208  0.36906383    -0.04100
C365        C  0.66887508  0.02148103  0.36284497    -0.00300
C366        C  0.70672054  0.02187748  0.32407915    -0.02900
C367        C  0.68347478  0.89395812  0.26107696     0.36400
C368        C  0.66224478  0.06587735  0.39574657     0.40000
C369        C  0.61048012  0.89094219  0.34349486     0.39100
C370        C  0.73979442  0.06620011  0.31798595     0.36000
C371        C  0.69498494  0.03777380  0.19820835     0.36700
C372        C  0.88048024  0.92354605  0.21883730     0.40000
N373        N  0.58482220  0.85527887  0.34963999    -0.38100
N374        N  0.68634463  0.86006479  0.23252670    -0.39700
N375        N  0.65686640  0.10131076  0.42195190    -0.37400
N376        N  0.76607430  0.10156793  0.31278695    -0.39800
N377        N  0.81196813  0.89476252  0.33401300    -0.39600
N378        N  0.91593085  0.89714036  0.22206940    -0.37200
N379        N  0.76938555  0.08229932  0.09274993    -0.38300
N380        N  0.65593490  0.05806377  0.19282298    -0.39900
C381        C  0.02729581  0.20710441  0.74480826    -0.04900
C382        C  0.99975525  0.25257899  0.75423895     0.09300
C383        C  0.97338225  0.25908455  0.80102981    -0.02300
C384        C  0.97310921  0.21960349  0.83785001    -0.00500
C385        C  0.00089759  0.17372713  0.82892692    -0.04100
C386        C  0.02848578  0.16798902  0.78219460     0.02900
C387        C  0.99681317  0.29298673  0.71388356     0.09700
C388        C  0.94559847  0.30627573  0.81087077     0.35600
C389        C  0.05868514  0.12235795  0.77225537     0.39000
C390        C  0.95192478  0.29808751  0.68409950    -0.04500
C391        C  0.94932606  0.33559296  0.64525773     0.02600
C392        C  0.99189486  0.36766733  0.63569476    -0.04100
C393        C  0.03652644  0.36292679  0.66605244    -0.00300
C394        C  0.03875496  0.32600156  0.70543522    -0.02900
C395        C  0.90833042  0.26488752  0.69385175     0.36400
C396        C  0.08014754  0.39615941  0.65669253     0.40000
C397        C  0.90278273  0.34143261  0.61539960     0.39100
C398        C  0.08386375  0.32235509  0.73780345     0.36000
C399        C  0.05365707  0.20031721  0.69604518     0.36700
C400        C  0.94194135  0.22585414  0.88368208     0.40000
N401        N  0.86557700  0.34588022  0.59163866    -0.38100
N402        N  0.87358986  0.23854800  0.70214341    -0.39700
N403        N  0.11475371  0.42292127  0.64928377    -0.37400
N404        N  0.11977278  0.31955406  0.76373279    -0.39800
N405        N  0.92321082  0.34371523  0.81881526    -0.39600
N406        N  0.91676537  0.23150688  0.91989667    -0.37200
N407        N  0.08274443  0.08613838  0.76355825    -0.38300
N408        N  0.07453397  0.19500244  0.65708981    -0.39900
C409        C  0.95813256  0.68920768  0.69328641    -0.04900
C410        C  0.00526497  0.71095362  0.70854390     0.09300
C411        C  0.05142573  0.69409807  0.68571794    -0.02300
C412        C  0.05041635  0.65543338  0.64798077    -0.00500
C413        C  0.00320890  0.63394119  0.63257676    -0.04100
C414        C  0.95703901  0.65135474  0.65484638     0.02900
C415        C  0.00590276  0.75208118  0.74841485     0.09700
C416        C  0.09987461  0.71683252  0.70075617     0.35600
C417        C  0.90839832  0.63033282  0.63796866     0.39000
C418        C  0.02345257  0.74129849  0.79843252    -0.04500
C419        C  0.02392335  0.78002925  0.83619211     0.02600
C420        C  0.00305501  0.82929298  0.82531058    -0.04100
C421        C  0.98361615  0.83899925  0.77511909    -0.00300
C422        C  0.98701917  0.80121981  0.73656329    -0.02900
C423        C  0.04020413  0.68978212  0.81124620     0.36400
C424        C  0.95800662  0.88681403  0.76281991     0.40000
C425        C  0.04693927  0.76855854  0.88572477     0.39100
C426        C  0.97062962  0.81270082  0.68441630     0.36000
C427        C  0.91074002  0.70587340  0.71727683     0.36700
C428        C  0.09771722  0.63871897  0.62381898     0.40000
N429        N  0.06526816  0.75888520  0.92508448    -0.38100
N430        N  0.05327584  0.64863140  0.82139009    -0.39700
N431        N  0.93723647  0.92457896  0.75235565    -0.37400
N432        N  0.95763572  0.82172117  0.64282488    -0.39800
N433        N  0.13863120  0.73470353  0.71281532    -0.39600
N434        N  0.13525600  0.62578779  0.60393646    -0.37200
N435        N  0.86968984  0.61337459  0.62452490    -0.38300
N436        N  0.87303937  0.71949149  0.73635860    -0.39900
C437        C  0.96515306  0.70899709  0.32408769    -0.04900
C438        C  0.00544226  0.70966669  0.28779420     0.09300
C439        C  0.04395331  0.67179412  0.28978049    -0.02300
C440        C  0.04298649  0.63421655  0.32874462    -0.00500
C441        C  0.00212770  0.63284432  0.36450893    -0.04100
C442        C  0.96271498  0.66990171  0.36142715     0.02900
C443        C  0.00646150  0.74956559  0.24647382     0.09700
C444        C  0.08414221  0.67123715  0.25114408     0.35600
C445        C  0.91936039  0.66746841  0.39636357     0.39000
C446        C  0.04189595  0.79031183  0.24875618    -0.04500
C447        C  0.04226951  0.82824367  0.21005300     0.02600
C448        C  0.00653032  0.82613520  0.16914610    -0.04100
C449        C  0.97179347  0.78445037  0.16645704    -0.00300
C450        C  0.97203034  0.74626926  0.20486085    -0.02900
C451        C  0.07824303  0.79283542  0.29089803     0.36400
C452        C  0.93487905  0.78108105  0.12489553     0.40000
C453        C  0.08103419  0.86807192  0.21133726     0.39100
C454        C  0.93697870  0.70317341  0.20167358     0.36000
C455        C  0.92630130  0.74875105  0.32294561     0.36700
C456        C  0.08411472  0.59700857  0.33208356     0.40000
N457        N  0.11237912  0.89941882  0.21254040    -0.38100
N458        N  0.10734822  0.79434787  0.32442383    -0.39700
N459        N  0.90544165  0.77792860  0.09178698    -0.37400
N460        N  0.90922483  0.66863356  0.19967121    -0.39800
N461        N  0.11597116  0.67105927  0.22008540    -0.39600
N462        N  0.11696339  0.56734086  0.33458798    -0.37200
N463        N  0.88474047  0.66552826  0.42418318    -0.38300
N464        N  0.89547431  0.78060124  0.32186459    -0.39900
C465        C  0.03305346  0.30543696  0.31278068    -0.04900
C466        C  0.98653768  0.28994066  0.28971041     0.09300
C467        C  0.93981947  0.31205482  0.30618828    -0.02300
C468        C  0.93974513  0.34889524  0.34583237    -0.00500
C469        C  0.98647248  0.36587770  0.36703479    -0.04100
C470        C  0.03306387  0.34386674  0.35068646     0.02900
C471        C  0.98716726  0.24984763  0.24851261     0.09700
C472        C  0.89192622  0.29727471  0.28212777     0.35600
C473        C  0.08091106  0.35984758  0.37411120     0.39000
C474        C  0.96752653  0.20048296  0.25847463    -0.04500
C475        C  0.96947176  0.16220607  0.22022687     0.02600
C476        C  0.99340850  0.17218027  0.17209226    -0.04100
C477        C  0.01421726  0.22174512  0.16287328    -0.00300
C478        C  0.00985896  0.26052086  0.20039461    -0.02900
C479        C  0.94593108  0.18880215  0.30865693     0.36400
C480        C  0.04213399  0.23305561  0.11581939     0.40000
C481        C  0.94553293  0.11305341  0.23067294     0.39100
C482        C  0.02973221  0.31150125  0.18992828     0.36000
C483        C  0.08099881  0.28162694  0.29763211     0.36700
C484        C  0.89171836  0.36871924  0.36573275     0.40000
N485        N  0.92639657  0.07398053  0.23940994    -0.38100
N486        N  0.92863326  0.17961512  0.34864620    -0.39700
N487        N  0.06455528  0.24279571  0.07860711    -0.37400
N488        N  0.04595167  0.35204108  0.18203935    -0.39800
N489        N  0.85361665  0.28552899  0.26309188    -0.39600
N490        N  0.85359601  0.38438219  0.38220890    -0.37200
N491        N  0.11891400  0.37233930  0.39326924    -0.38300
N492        N  0.11922607  0.26286208  0.28519178    -0.39900
loop_ 
_geom_bond_atom_site_label_1 
_geom_bond_atom_site_label_2 
_geom_bond_distance 
_geom_bond_site_symmetry_2 
_ccdc_geom_bond_type 
N1            C6   1.353       .  A
N1            C5   1.354       .  A
N1           H33   1.036   1_655  S
N2            C9   1.351       .  A
N2           C10   1.350       .  A
N3            C8   1.352       .  A
N3            C7   1.351       .  A
N3           H34   1.034   1_655  S
N4           C11   1.350       .  A
N4           C12   1.351       .  A
C5           C13   1.387       .  A
C5           C21   1.417   1_655  A
C6           C22   1.416       .  A
C6           C14   1.387       .  A
C7           C15   1.389       .  A
C7           C24   1.417   1_655  A
C8           C23   1.413       .  A
C8           C16   1.386       .  A
C9           C21   1.414       .  A
C9           C17   1.386       .  A
C10          C24   1.414       .  A
C10          C18   1.387       .  A
C11          C19   1.387       .  A
C11          C22   1.412       .  A
C12          C20   1.386       .  A
C12          C23   1.412       .  A
C13          C14   1.374       .  A
C13          H25   1.082       .  S
C14          H26   1.082       .  S
C15          C16   1.372       .  A
C15          H27   1.082       .  S
C16          H28   1.083       .  S
C17          C18   1.369       .  A
C17          H29   1.082       .  S
C18          H30   1.082       .  S
C19          C20   1.370       .  A
C19          H31   1.082   1_655  S
C20          H32   1.082   1_655  S
C21         C441   1.498       .  S
C22         C469   1.490       .  S
C23         C392   1.492       .  S
C24         C413   1.490       .  S
O35          C46   1.289       .  A
O35         Eu71   2.447       .  S
O36          C47   1.290       .  A
O36         Eu70   2.454   1_554  S
O37          C48   1.294       .  A
O37         Eu43   2.469   1_655  S
O38          C49   1.294   1_565  A
O38         Eu43   2.475       .  S
O39          C49   1.289       .  A
O39         Eu73   2.446   1_554  S
O40          C48   1.290       .  A
O40         Eu72   2.451       .  S
O41          C47   1.293       .  A
O41         Eu43   2.465       .  S
O42          C46   1.293       .  A
O42         Eu43   2.467   1_645  S
Eu43         O53   2.353   1_565  S
Eu43         O45   2.356   1_465  S
Eu43         O44   2.347       .  S
Eu43         O51   2.359   1_455  S
O44         Eu73   2.350   1_564  S
O44         Eu70   2.352   1_554  S
O45         Eu71   2.349       .  S
O45         Eu72   2.349   1_545  S
C46         C476   1.499       .  S
C47         C448   1.490       .  S
C48         C357   1.493       .  S
C49         C336   1.505       .  S
H50          O51   0.967       .  S
O51         Eu72   2.353       .  S
O51         Eu70   2.348   1_654  S
H52          O53   0.966       .  S
O53         Eu71   2.352   1_455  S
O53         Eu73   2.350   1_554  S
O54          C77   1.290   1_655  A
O54         Eu70   2.451   1_655  S
O55          C78   1.289       .  A
O55         Eu71   2.445   1_456  S
O56          C79   1.290       .  A
O56         Eu72   2.452   1_556  S
O57          C80   1.290       .  A
O57         Eu73   2.449   1_564  S
O58          C81   1.291       .  A
O58         Eu73   2.460       .  S
O59          C82   1.290       .  A
O59         Eu72   2.459   1_545  S
O60          C83   1.291       .  A
O60         Eu74   2.461   1_565  S
O61          C84   1.293       .  A
O61         Eu74   2.467   1_455  S
O62          C83   1.289       .  A
O62         Eu72   2.447   1_556  S
O63          C84   1.290       .  A
O63         Eu73   2.452       .  S
O64          C79   1.293       .  A
O64         Eu70   2.469   1_655  S
O65          C82   1.291   1_556  A
O65         Eu71   2.463   1_556  S
O66          C81   1.291   1_554  A
O66         Eu71   2.457   1_455  S
O67          C80   1.291   1_556  A
O67         Eu70   2.455       .  S
O68          C77   1.291       .  A
O68         Eu74   2.457   1_465  S
O69          C78   1.290   1_655  A
O69         Eu74   2.451       .  S
Eu70         O88   2.357       .  S
Eu70         O76   2.344   1_455  S
Eu71         O75   2.347   1_654  S
Eu71         O86   2.349   1_554  S
Eu72         O86   2.353   1_564  S
Eu72         O76   2.349   1_554  S
Eu73         O75   2.342       .  S
Eu73         O88   2.354   1_545  S
Eu74         O75   2.347   1_655  S
Eu74         O86   2.358       .  S
Eu74         O88   2.351   1_645  S
Eu74         O76   2.351   1_545  S
C77         C420   1.500       .  S
C78         C385   1.488       .  S
C79         C168   1.498       .  S
C80         C224   1.494       .  S
C81         C245   1.497       .  S
C82         C196   1.509       .  S
C83         C273   1.473       .  S
C84         C301   1.499       .  S
H85          O86   0.969       .  S
H87          O88   0.967       .  S
N89          C94   1.352       .  A
N89          C93   1.354       .  A
N89         H121   1.039       .  S
N90          C97   1.350       .  A
N90          C98   1.350       .  A
N91          C96   1.352       .  A
N91          C95   1.353       .  A
N91         H122   1.040   1_545  S
N92          C99   1.351   1_545  A
N92         C100   1.351       .  A
C93         C101   1.386   1_565  A
C93         C109   1.414       .  A
C94         C110   1.414       .  A
C94         C102   1.387   1_565  A
C95         C103   1.388       .  A
C95         C112   1.417   1_545  A
C96         C111   1.414       .  A
C96         C104   1.386       .  A
C97         C109   1.409       .  A
C97         C105   1.384       .  A
C98         C112   1.415       .  A
C98         C106   1.388       .  A
C99         C107   1.386       .  A
C99         C110   1.413       .  A
C100        C108   1.386   1_545  A
C100        C111   1.413       .  A
C101        C102   1.375       .  A
C101        H113   1.082       .  S
C102        H114   1.082       .  S
C103        C104   1.378       .  A
C103        H115   1.082       .  S
C104        H116   1.082       .  S
C105        C106   1.375       .  A
C105        H117   1.082       .  S
C106        H118   1.082       .  S
C107        C108   1.374       .  A
C107        H119   1.082       .  S
C108        H120   1.082       .  S
C109        C364   1.495       .  S
C110        C329   1.492       .  S
C111        C308   1.497       .  S
C112        C280   1.502       .  S
N123        C128   1.353   1_556  A
N123        C127   1.356   1_556  A
N123        H155   1.037       .  S
N124        C131   1.353   1_554  A
N124        C132   1.353   1_554  A
N125        C130   1.353       .  A
N125        C129   1.353       .  A
N125        H156   1.035   1_554  S
N126        C133   1.353   1_554  A
N126        C134   1.352       .  A
C127        C135   1.387       .  A
C127        C143   1.419       .  A
C128        C144   1.417   1_554  A
C128        C136   1.387       .  A
C129        C137   1.387       .  A
C129        C146   1.417   1_554  A
C130        C145   1.417       .  A
C130        C138   1.388       .  A
C131        C143   1.417   1_556  A
C131        C139   1.386       .  A
C132        C146   1.417       .  A
C132        C140   1.386       .  A
C133        C141   1.387       .  A
C133        C144   1.417       .  A
C134        C142   1.387   1_554  A
C134        C145   1.417       .  A
C135        C136   1.375       .  A
C135        H147   1.082       .  S
C136        H148   1.083       .  S
C137        C138   1.374       .  A
C137        H149   1.082       .  S
C138        H150   1.082       .  S
C139        C140   1.372       .  A
C139        H151   1.082       .  S
C140        H152   1.082       .  S
C141        C142   1.372       .  A
C141        H153   1.082       .  S
C142        H154   1.082       .  S
C143        C189   1.502       .  S
C144        C252   1.499       .  S
C145        C217   1.495       .  S
C146        C161   1.500       .  S
C157        C158   1.410       .  A
C157        C162   1.411       .  A
C157        C175   1.450       .  S
C158        C159   1.411   1_556  A
C158        C163   1.496       .  S
C159        C160   1.410       .  A
C159        C164   1.451       .  S
C160        C161   1.414   1_554  A
C160        C176   1.450       .  S
C161        C162   1.415       .  A
C162        C165   1.451       .  S
C163        C166   1.408   1_556  A
C163        C170   1.408       .  A
C164        N181   1.157       .  T
C165        N183   1.157       .  T
C166        C167   1.411       .  A
C166        C171   1.452       .  S
C167        C168   1.421   1_554  A
C167        C173   1.452       .  S
C168        C169   1.420       .  A
C169        C170   1.412       .  A
C169        C172   1.450       .  S
C170        C174   1.451       .  S
C171        N178   1.157       .  T
C172        N179   1.157       .  T
C173        N177   1.157       .  T
C174        N180   1.157       .  T
C175        N184   1.157       .  T
C176        N182   1.157       .  T
C185        C186   1.413   1_556  A
C185        C190   1.412       .  A
C185        C203   1.450       .  S
C186        C187   1.414       .  A
C186        C191   1.504   1_554  S
C187        C188   1.413       .  A
C187        C192   1.451       .  S
C188        C189   1.413       .  A
C188        C204   1.450       .  S
C189        C190   1.414   1_554  A
C190        C193   1.450       .  S
C191        C194   1.410   1_556  A
C191        C198   1.410       .  A
C192        N209   1.157       .  T
C193        N211   1.157       .  T
C194        C195   1.413       .  A
C194        C199   1.452       .  S
C195        C196   1.424       .  A
C195        C201   1.452       .  S
C196        C197   1.426   1_554  A
C197        C198   1.414       .  A
C197        C200   1.452       .  S
C198        C202   1.452       .  S
C199        N206   1.157       .  T
C200        N207   1.158       .  T
C201        N205   1.157       .  T
C202        N208   1.157       .  T
C203        N212   1.157       .  T
C204        N210   1.157       .  T
C213        C214   1.413   1_556  A
C213        C218   1.407       .  A
C213        C231   1.452       .  S
C214        C215   1.413       .  A
C214        C219   1.496       .  S
C215        C216   1.411       .  A
C215        C220   1.451       .  S
C216        C217   1.413       .  A
C216        C232   1.450       .  S
C217        C218   1.411   1_554  A
C218        C221   1.450       .  S
C219        C222   1.410       .  A
C219        C226   1.410   1_554  A
C220        N237   1.157       .  T
C221        N239   1.157       .  T
C222        C223   1.409       .  A
C222        C227   1.452       .  S
C223        C224   1.420       .  A
C223        C229   1.452       .  S
C224        C225   1.420   1_554  A
C225        C226   1.409       .  A
C225        C228   1.453       .  S
C226        C230   1.452       .  S
C227        N234   1.157       .  T
C228        N235   1.158       .  T
C229        N233   1.157       .  T
C230        N236   1.157       .  T
C231        N240   1.157       .  T
C232        N238   1.157       .  T
C241        C242   1.408       .  A
C241        C246   1.412       .  A
C241        C259   1.451       .  S
C242        C243   1.407   1_556  A
C242        C247   1.494       .  S
C243        C244   1.410       .  A
C243        C248   1.452       .  S
C244        C245   1.421   1_554  A
C244        C260   1.450       .  S
C245        C246   1.421       .  A
C246        C249   1.451       .  S
C247        C250   1.410   1_556  A
C247        C254   1.410       .  A
C248        N265   1.157       .  T
C249        N267   1.157       .  T
C250        C251   1.409       .  A
C250        C255   1.450       .  S
C251        C252   1.413   1_554  A
C251        C257   1.450       .  S
C252        C253   1.416       .  A
C253        C254   1.411       .  A
C253        C256   1.450       .  S
C254        C258   1.451       .  S
C255        N262   1.157       .  T
C256        N263   1.157       .  T
C257        N261   1.157       .  T
C258        N264   1.157       .  T
C259        N268   1.157       .  T
C260        N266   1.157       .  T
C269        C270   1.416       .  A
C269        C274   1.409       .  A
C269        C287   1.450       .  S
C270        C271   1.417   1_565  A
C270        C275   1.502       .  S
C271        C272   1.409       .  A
C271        C276   1.451       .  S
C272        C273   1.409   1_545  A
C272        C288   1.452       .  S
C273        C274   1.409       .  A
C274        C277   1.452       .  S
C275        C278   1.415       .  A
C275        C282   1.414   1_565  A
C276        N293   1.157       .  T
C277        N295   1.157       .  T
C278        C279   1.411       .  A
C278        C283   1.451       .  S
C279        C280   1.415       .  A
C279        C285   1.451       .  S
C280        C281   1.415   1_565  A
C281        C282   1.410       .  A
C281        C284   1.451       .  S
C282        C286   1.451       .  S
C283        N290   1.157       .  T
C284        N291   1.157       .  T
C285        N289   1.157       .  T
C286        N292   1.157       .  T
C287        N296   1.157       .  T
C288        N294   1.158       .  T
C297        C298   1.409   1_565  A
C297        C302   1.412       .  A
C297        C315   1.451       .  S
C298        C299   1.407       .  A
C298        C303   1.496       .  S
C299        C300   1.411       .  A
C299        C304   1.452       .  S
C300        C301   1.423       .  A
C300        C316   1.451       .  S
C301        C302   1.421   1_545  A
C302        C305   1.451       .  S
C303        C306   1.412       .  A
C303        C310   1.410   1_545  A
C304        N321   1.157       .  T
C305        N323   1.157       .  T
C306        C307   1.412       .  A
C306        C311   1.450       .  S
C307        C308   1.414       .  A
C307        C313   1.450       .  S
C308        C309   1.413   1_545  A
C309        C310   1.409       .  A
C309        C312   1.450       .  S
C310        C314   1.451       .  S
C311        N318   1.157       .  T
C312        N319   1.157       .  T
C313        N317   1.157       .  T
C314        N320   1.157       .  T
C315        N324   1.157       .  T
C316        N322   1.157       .  T
C325        C326   1.415       .  A
C325        C330   1.410       .  A
C325        C343   1.451       .  S
C326        C327   1.415   1_565  A
C326        C331   1.502   1_565  S
C327        C328   1.409       .  A
C327        C332   1.450       .  S
C328        C329   1.410   1_545  A
C328        C344   1.451       .  S
C329        C330   1.410       .  A
C330        C333   1.451       .  S
C331        C334   1.411       .  A
C331        C338   1.411   1_545  A
C332        N349   1.157       .  T
C333        N351   1.157       .  T
C334        C335   1.411       .  A
C334        C339   1.452       .  S
C335        C336   1.421       .  A
C335        C341   1.452       .  S
C336        C337   1.425   1_545  A
C337        C338   1.413       .  A
C337        C340   1.452       .  S
C338        C342   1.453       .  S
C339        N346   1.157       .  T
C340        N347   1.157       .  T
C341        N345   1.157       .  T
C342        N348   1.157       .  T
C343        N352   1.157       .  T
C344        N350   1.157       .  T
C353        C354   1.410   1_545  A
C353        C358   1.410       .  A
C353        C371   1.451       .  S
C354        C355   1.410       .  A
C354        C359   1.498       .  S
C355        C356   1.411       .  A
C355        C360   1.451       .  S
C356        C357   1.418       .  A
C356        C372   1.451       .  S
C357        C358   1.418   1_565  A
C358        C361   1.451       .  S
C359        C362   1.412       .  A
C359        C366   1.413   1_565  A
C360        N377   1.157       .  T
C361        N379   1.157       .  T
C362        C363   1.411       .  A
C362        C367   1.450       .  S
C363        C364   1.411       .  A
C363        C369   1.450       .  S
C364        C365   1.412   1_565  A
C365        C366   1.410       .  A
C365        C368   1.451       .  S
C366        C370   1.451       .  S
C367        N374   1.157       .  T
C368        N375   1.157       .  T
C369        N373   1.157       .  T
C370        N376   1.157       .  T
C371        N380   1.157       .  T
C372        N378   1.157       .  T
C381        C382   1.409   1_455  A
C381        C386   1.409       .  A
C381        C399   1.452       .  S
C382        C383   1.407       .  A
C382        C387   1.489       .  S
C383        C384   1.406       .  A
C383        C388   1.452       .  S
C384        C385   1.419   1_655  A
C384        C400   1.451       .  S
C385        C386   1.419       .  A
C386        C389   1.451       .  S
C387        C390   1.411       .  A
C387        C394   1.410   1_655  A
C388        N405   1.157       .  T
C389        N407   1.157       .  T
C390        C391   1.407       .  A
C390        C395   1.452       .  S
C391        C392   1.412       .  A
C391        C397   1.450       .  S
C392        C393   1.413   1_655  A
C393        C394   1.407       .  A
C393        C396   1.451       .  S
C394        C398   1.451       .  S
C395        N402   1.157       .  T
C396        N403   1.157       .  T
C397        N401   1.157       .  T
C398        N404   1.157       .  T
C399        N408   1.157       .  T
C400        N406   1.156       .  T
C409        C410   1.412   1_655  A
C409        C414   1.406       .  A
C409        C427   1.451       .  S
C410        C411   1.412       .  A
C410        C415   1.492       .  S
C411        C412   1.408       .  A
C411        C416   1.451       .  S
C412        C413   1.412       .  A
C412        C428   1.451       .  S
C413        C414   1.411   1_455  A
C414        C417   1.451       .  S
C415        C418   1.407       .  A
C415        C422   1.408   1_455  A
C416        N433   1.157       .  T
C417        N435   1.157       .  T
C418        C419   1.409       .  A
C418        C423   1.453       .  S
C419        C420   1.425       .  A
C419        C425   1.452       .  S
C420        C421   1.423   1_455  A
C421        C422   1.409       .  A
C421        C424   1.451       .  S
C422        C426   1.453       .  S
C423        N430   1.157       .  T
C424        N431   1.157       .  T
C425        N429   1.158       .  T
C426        N432   1.157       .  T
C427        N436   1.157       .  T
C428        N434   1.157       .  T
C437        C438   1.411   1_655  A
C437        C442   1.409       .  A
C437        C455   1.451       .  S
C438        C439   1.411       .  A
C438        C443   1.495       .  S
C439        C440   1.409       .  A
C439        C444   1.451       .  S
C440        C441   1.414       .  A
C440        C456   1.450       .  S
C441        C442   1.414   1_455  A
C442        C445   1.451       .  S
C443        C446   1.410       .  A
C443        C450   1.410   1_455  A
C444        N461   1.157       .  T
C445        N463   1.157       .  T
C446        C447   1.411       .  A
C446        C451   1.451       .  S
C447        C448   1.416       .  A
C447        C453   1.451       .  S
C448        C449   1.418   1_455  A
C449        C450   1.410       .  A
C449        C452   1.451       .  S
C450        C454   1.452       .  S
C451        N458   1.157       .  T
C452        N459   1.157       .  T
C453        N457   1.157       .  T
C454        N460   1.157       .  T
C455        N464   1.157       .  T
C456        N462   1.157       .  T
C465        C466   1.414   1_455  A
C465        C470   1.406       .  A
C465        C483   1.451       .  S
C466        C467   1.415       .  A
C466        C471   1.498       .  S
C467        C468   1.410       .  A
C467        C472   1.451       .  S
C468        C469   1.410       .  A
C468        C484   1.451       .  S
C469        C470   1.410   1_655  A
C470        C473   1.451       .  S
C471        C474   1.410       .  A
C471        C478   1.410   1_655  A
C472        N489   1.157       .  T
C473        N491   1.157       .  T
C474        C475   1.411       .  A
C474        C479   1.452       .  S
C475        C476   1.421       .  A
C475        C481   1.452       .  S
C476        C477   1.423   1_655  A
C477        C478   1.410       .  A
C477        C480   1.452       .  S
C478        C482   1.453       .  S
C479        N486   1.157       .  T
C480        N487   1.158       .  T
C481        N485   1.157       .  T
C482        N488   1.157       .  T
C483        N492   1.157       .  T
C484        N490   1.157       .  T
