geometry optimzed in LAMMPS
_audit_creation_date              2020-11-30 
_audit_creation_method            'lammps2cif' 
_symmetry_space_group_name_H-M    'P1' 
_symmetry_Int_Tables_number       1 
_symmetry_cell_setting            triclinic 
loop_ 
_symmetry_equiv_pos_as_xyz 
  x,y,z 
_cell_length_a                    37.97353327 
_cell_length_b                    38.112401116845426 
_cell_length_c                    52.54425099888472 
_cell_angle_alpha                 89.73359214336689 
_cell_angle_beta                  89.92047787097265 
_cell_angle_gamma                 120.58553746941725 
loop_ 
_atom_site_label 
_atom_site_type_symbol 
_atom_site_fract_x 
_atom_site_fract_y 
_atom_site_fract_z 
_atom_site_charge 
C1          C  0.27776525  0.22425556  0.05802462     0.03800
C2          C  0.24861653  0.18930519  0.07116339    -0.12400
C3          C  0.25386607  0.18374445  0.09701321     0.01300
C4          C  0.28849855  0.21396002  0.10970750    -0.10900
C5          C  0.31825421  0.24892412  0.09673526     0.03700
C6          C  0.31238756  0.25408731  0.07088892    -0.10300
H7          H  0.22250174  0.16591535  0.06091723     0.09300
H8          H  0.29319181  0.20938178  0.12949115     0.06900
H9          H  0.33552828  0.28030527  0.06039274     0.06700
C10         C  0.24770260  0.24802458  0.86926169     0.03800
C11         C  0.27694942  0.28366392  0.85665276    -0.12400
C12         C  0.27067520  0.29139433  0.83137620     0.01300
C13         C  0.23504004  0.26268400  0.81872649    -0.10900
C14         C  0.20529022  0.22721662  0.83118079     0.03700
C15         C  0.21206115  0.21994020  0.85640879    -0.10300
H16         H  0.30367308  0.30604388  0.86694184     0.09300
H17         H  0.22960131  0.26879469  0.79942177     0.06900
H18         H  0.18912949  0.19297102  0.86641492     0.06700
O19         O  0.25341643  0.17229601  0.46438929    -0.72300
O20         O  0.28819795  0.27997983  0.43117652    -0.73300
O21         O  0.32670631  0.24826537  0.46295128    -0.61900
O22         O  0.21510765  0.20405769  0.43280232    -0.70300
O23         O  0.19547620  0.22339416  0.46709231    -0.69900
O24         O  0.30732229  0.26770834  0.49729901    -0.61100
O25         O  0.26880006  0.29950594  0.46548963    -0.73600
O26         O  0.23402504  0.19160516  0.49880577    -0.72400
Cu27       Cu  0.27155785  0.22549884  0.44666559     1.04600
Cu28       Cu  0.25072084  0.24623249  0.48336709     1.04300
C29         C  0.23908668  0.16519036  0.48705178     0.93900
C30         C  0.28297157  0.30639555  0.44277174     0.93000
C31         C  0.33441352  0.26394884  0.48516860     0.85200
C32         C  0.18791605  0.20770890  0.44487621     0.91400
O33         O  0.03078861  0.39549976  0.79822338    -0.72300
O34         O  0.13943825  0.43266886  0.83118441    -0.73300
O35         O  0.10617017  0.46972997  0.79962325    -0.61900
O36         O  0.06420468  0.35860441  0.82990552    -0.70300
O37         O  0.08429657  0.33991054  0.79553281    -0.69900
O38         O  0.12677297  0.45137564  0.76533076    -0.61100
O39         O  0.15962127  0.41399186  0.79684477    -0.73600
O40         O  0.05124839  0.37727360  0.76381322    -0.72400
Cu41       Cu  0.08439695  0.41474342  0.81590758     1.04600
Cu42       Cu  0.10616889  0.39499010  0.77918646     1.04300
C43         C  0.02410736  0.38138036  0.77559483     0.93900
C44         C  0.16645504  0.42835341  0.81940003     0.93000
C45         C  0.12251677  0.47797910  0.77748589     0.85200
C46         C  0.06861546  0.33201478  0.81786651     0.91400
C47         C  0.27893723  0.52241522  0.05799318     0.03800
C48         C  0.31364304  0.52785985  0.07098617    -0.12400
C49         C  0.31953669  0.53879198  0.09679749     0.01300
C50         C  0.28994288  0.04386234  0.10960990    -0.10900
C51         C  0.25496558  0.53842070  0.09694146     0.03700
C52         C  0.24924017  0.52671001  0.07126520    -0.10300
H53         H  0.33688385  0.52526123  0.06061458     0.09300
H54         H  0.29483584  0.05344717  0.12929867     0.06900
H55         H  0.22244840  0.52245484  0.06122321     0.06700
C56         C  0.24712957  0.45775199  0.87052479     0.03800
C57         C  0.27548205  0.45064427  0.85787532    -0.12400
C58         C  0.26909705  0.43749300  0.83246120     0.01300
C59         C  0.23407237  0.43189132  0.81976184    -0.10900
C60         C  0.20516658  0.43841574  0.83224166     0.03700
C61         C  0.21206938  0.45152071  0.85763798    -0.10300
H62         H  0.30185398  0.45429596  0.86814434     0.09300
H63         H  0.22863849  0.42116658  0.80030785     0.06900
H64         H  0.18985770  0.45623824  0.86765525     0.06700
C65         C  0.98023692  0.22415221  0.05791839     0.03800
C66         C  0.97493059  0.25325681  0.07087767    -0.12400
C67         C  0.96379388  0.24788415  0.09675036     0.01300
C68         C  0.45921343  0.21345981  0.10976537    -0.10900
C69         C  0.96499690  0.18430728  0.09714988     0.03700
C70         C  0.97593350  0.19019664  0.07124789    -0.10300
H71         H  0.97809568  0.27933016  0.06046775     0.09300
H72         H  0.44979183  0.20865036  0.12955411     0.06900
H73         H  0.97926934  0.16741893  0.06102699     0.06700
C74         C  0.04109087  0.25238112  0.86948502     0.03800
C75         C  0.04558862  0.28640846  0.85616937    -0.12400
C76         C  0.05770927  0.29288218  0.83048185     0.01300
C77         C  0.06373624  0.26384119  0.81789962    -0.10900
C78         C  0.05859038  0.22911325  0.83083298     0.03700
C79         C  0.04685964  0.22349464  0.85661696    -0.10300
H80         H  0.04134824  0.30872896  0.86626428     0.09300
H81         H  0.07390765  0.26903452  0.79825366     0.06900
H82         H  0.04405600  0.19764153  0.86710862     0.06700
O83         O  0.41990220  0.50898087  0.12945982    -0.72300
O84         O  0.46000850  0.11923249  0.09825454    -0.73300
O85         O  0.99473019  0.08358322  0.13009997    -0.61900
O86         O  0.38535667  0.04478081  0.09776343    -0.70300
O87         O  0.36525632  0.06353089  0.13210867    -0.71700
O88         O  0.47448216  0.10216290  0.16445228    -0.61100
O89         O  0.43998794  0.13812444  0.13257057    -0.73600
O90         O  0.39967096  0.02765698  0.16377152    -0.72400
Cu91       Cu  0.44074358  0.06352361  0.11272019     1.04600
Cu92       Cu  0.41917704  0.08354530  0.14941272     1.04300
C93         C  0.40423755  0.50111575  0.15178775     0.93900
C94         C  0.45516010  0.14570097  0.11009824     0.93000
C95         C  0.00151846  0.09786616  0.15268681     0.85200
C96         C  0.35831141  0.04898388  0.10959985     0.91400
C97         C  0.10998883  0.38872607  0.39135915     0.03800
C98         C  0.14412286  0.41848411  0.40462130    -0.12400
C99         C  0.14955188  0.41291361  0.43046259     0.01300
C100        C  0.11995136  0.37745707  0.44304804    -0.10900
C101        C  0.08587192  0.34715921  0.42997194     0.03700
C102        C  0.08095064  0.35320361  0.40412838    -0.10300
H103        H  0.16731372  0.44504854  0.39441104     0.09300
H104        H  0.12440514  0.37258147  0.46282168     0.06900
H105        H  0.05516339  0.32983635  0.39364468     0.06700
C106        C  0.08343776  0.41703182  0.20264087     0.03800
C107        C  0.04787895  0.38873610  0.18979423    -0.12400
C108        C  0.04091449  0.39602768  0.16460700     0.01300
C109        C  0.07037234  0.43173091  0.15221970    -0.10900
C110        C  0.10584499  0.46063350  0.16490726     0.03700
C111        C  0.11236511  0.45286048  0.19010533    -0.10300
H112        H  0.02512645  0.36165217  0.19979320     0.09300
H113        H  0.06479415  0.43789068  0.13295933     0.06900
H114        H  0.13898511  0.47536748  0.20041679     0.06700
C115        C  0.10818593  0.17852632  0.39338483     0.03800
C116        C  0.14142047  0.18196509  0.40721046    -0.12400
C117        C  0.14855929  0.19622595  0.43236105     0.01300
C118        C  0.12020389  0.20414809  0.44429307    -0.10900
C119        C  0.08588852  0.19945663  0.43109764     0.03700
C120        C  0.08020908  0.18670803  0.40561067    -0.10300
H121        H  0.16284089  0.17536227  0.39788110     0.09300
H122        H  0.12570148  0.21550271  0.46360367     0.06900
H123        H  0.05487562  0.18466329  0.39490765     0.06700
C124        C  0.07857802  0.12014208  0.20513089     0.03800
C125        C  0.10834512  0.11586878  0.19197211    -0.12400
C126        C  0.10383274  0.10633049  0.16594417     0.01300
C127        C  0.06971298  0.10249624  0.15296141    -0.10900
C128        C  0.03990365  0.10729081  0.16576464     0.03700
C129        C  0.04489120  0.11660699  0.19185126    -0.10300
H130        H  0.13411657  0.11830469  0.20236974     0.09300
H131        H  0.06558746  0.09429176  0.13302575     0.06900
H132        H  0.02156254  0.11907214  0.20222049     0.06700
O133        O  0.19424065  0.11744169  0.09823565    -0.72300
O134        O  0.12516436  0.50777079  0.13040538    -0.73300
O135        O  0.12418440  0.08127776  0.13064965    -0.61900
O136        O  0.19507416  0.04401075  0.09806906    -0.70300
O137        O  0.23496522  0.06405021  0.13207665    -0.69900
O138        O  0.16391741  0.10105002  0.16472852    -0.61100
O139        O  0.16495871  0.02754727  0.16445906    -0.73600
O140        O  0.23410150  0.13765860  0.13226521    -0.72400
Cu141      Cu  0.15825333  0.06193052  0.11318798     1.04600
Cu142      Cu  0.20089728  0.08332227  0.14956257     1.04300
C143        C  0.22575956  0.14468263  0.10992063     0.93900
C144        C  0.13360605  0.50034772  0.15260005     0.93000
C145        C  0.13227911  0.09626930  0.15304741     0.85200
C146        C  0.22671197  0.04880230  0.10974695     0.91400
O147        O  0.45628150  0.17105571  0.46323920    -0.72300
O148        O  0.02646768  0.28058874  0.43084825    -0.73300
O149        O  0.02680229  0.20667367  0.43125847    -0.61900
O150        O  0.45611955  0.24526701  0.46305831    -0.70300
O151        O  0.99579340  0.26530884  0.49715233    -0.69900
O152        O  0.06613886  0.22665902  0.46550621    -0.61100
O153        O  0.06602192  0.30071327  0.46501231    -0.73600
O154        O  0.99565407  0.19105821  0.49748001    -0.72400
Cu155      Cu  0.48999973  0.22517480  0.44593163     1.04600
Cu156      Cu  0.03227589  0.24664081  0.48246115     1.04300
C157        C  0.46442159  0.16377750  0.48555965     0.93900
C158        C  0.05785517  0.30782386  0.44264129     0.93000
C159        C  0.05809390  0.21114246  0.44325363     0.85200
C160        C  0.46449950  0.26099291  0.48527735     0.91400
C161        C  0.41688037  0.29591144  0.53534782     0.03800
C162        C  0.38198459  0.29025456  0.52252045    -0.12400
C163        C  0.37403270  0.27559032  0.49741548     0.01300
C164        C  0.40219638  0.26777267  0.48503945    -0.10900
C165        C  0.43720263  0.27314530  0.49765190     0.03700
C166        C  0.44429824  0.28734100  0.52283905    -0.10300
H167        H  0.36015102  0.29546567  0.53259663     0.09300
H168        H  0.39599429  0.25585582  0.46586302     0.06900
H169        H  0.97066022  0.29087129  0.53306771     0.06700
C170        C  0.44492079  0.35492075  0.72376163     0.03800
C171        C  0.47965741  0.36048251  0.73679896    -0.12400
C172        C  0.48548689  0.37143862  0.76262077     0.01300
C173        C  0.45568837  0.37619661  0.77542410    -0.10900
C174        C  0.42089001  0.37105993  0.76265487     0.03700
C175        C  0.41571724  0.36029784  0.73679897    -0.10300
H176        H  0.50254387  0.35710022  0.72657493     0.09300
H177        H  0.46026976  0.38526213  0.79521017     0.06900
H178        H  0.38967456  0.35739112  0.72648778     0.06700
O179        O  0.29039074  0.33836587  0.79672728    -0.72300
O180        O  0.35859536  0.44842754  0.76478663    -0.73300
O181        O  0.36028697  0.37545569  0.76413965    -0.61900
O182        O  0.28890252  0.41155705  0.79738566    -0.70300
O183        O  0.32887017  0.43161411  0.83135424    -0.69900
O184        O  0.40012945  0.39529126  0.79816712    -0.61100
O185        O  0.39869047  0.46854152  0.79870492    -0.73600
O186        O  0.33011772  0.35817473  0.83080902    -0.72400
Cu187      Cu  0.32311636  0.39270662  0.77961548     1.04600
Cu188      Cu  0.36586936  0.41410099  0.81593393     1.04300
C189        C  0.29873743  0.33098206  0.81896367     0.93900
C190        C  0.39004246  0.47573604  0.77649008     0.93000
C191        C  0.39213677  0.38055978  0.77569845     0.85200
C192        C  0.29716442  0.42675350  0.81973319     0.91400
C193        C  0.41346500  0.08135466  0.53607945     0.03800
C194        C  0.44218629  0.11726071  0.52351896    -0.12400
C195        C  0.43661381  0.12409120  0.49794916     0.01300
C196        C  0.40215742  0.09416174  0.48492835    -0.10900
C197        C  0.37286452  0.05831582  0.49735139     0.03700
C198        C  0.37902665  0.05194937  0.52290216    -0.10300
H199        H  0.96815605  0.14036774  0.53401168     0.09300
H200        H  0.39715312  0.09963709  0.46538340     0.06900
H201        H  0.35609134  0.52516722  0.53307222     0.06700
C202        C  0.44010987  0.05685874  0.72517833     0.03800
C203        C  0.41129279  0.02163812  0.73828557    -0.12400
C204        C  0.41764471  0.01515309  0.76378280     0.01300
C205        C  0.45292826  0.04478106  0.77624245    -0.10900
C206        C  0.48212535  0.08023959  0.76345634     0.03700
C207        C  0.47494434  0.08655949  0.73807955    -0.10300
H208        H  0.38502099  0.49837484  0.72814652     0.09300
H209        H  0.45853906  0.03937370  0.79566943     0.06900
H210        H  0.99733196  0.11363608  0.72791341     0.06700
O211        O  0.45841596  0.30770939  0.09764781    -0.72300
O212        O  0.42072111  0.37847160  0.12968858    -0.73300
O213        O  0.99455118  0.37732869  0.12978336    -0.61900
O214        O  0.38473685  0.30869045  0.09755552    -0.70300
O215        O  0.36410695  0.26890529  0.13181392    -0.69900
O216        O  0.47378136  0.33733477  0.16394265    -0.61100
O217        O  0.40006381  0.33858753  0.16388505    -0.73600
O218        O  0.43775738  0.26777021  0.13182720    -0.72400
Cu219      Cu  0.44036009  0.34449265  0.11250571     1.04600
Cu220      Cu  0.41818830  0.30177102  0.14904663     1.04300
C221        C  0.45330396  0.27604013  0.10945522     0.93900
C222        C  0.40499977  0.37015053  0.15201354     0.93000
C223        C  0.00141376  0.36865361  0.15208056     0.85200
C224        C  0.35729500  0.27721644  0.10941312     0.91400
C225        C  0.30449203  0.38266274  0.38978001     0.03800
C226        C  0.30085138  0.34912627  0.40325324    -0.12400
C227        C  0.29149858  0.34423349  0.42937471     0.01300
C228        C  0.28678673  0.37400457  0.44203233    -0.10900
C229        C  0.29083681  0.40808364  0.42884947     0.03700
C230        C  0.29991106  0.41224652  0.40268044    -0.10300
H231        H  0.30378037  0.32608739  0.39305285     0.09300
H232        H  0.27893615  0.37011442  0.46208054     0.06900
H233        H  0.30252483  0.43796488  0.39211309     0.06700
C234        C  0.37302813  0.41945976  0.20255395     0.03800
C235        C  0.37983552  0.39112983  0.18984466    -0.12400
C236        C  0.39378989  0.39797095  0.16449902     0.01300
C237        C  0.40005869  0.43331049  0.15183038    -0.10900
C238        C  0.39309560  0.46184301  0.16427441     0.03700
C239        C  0.37900599  0.45430741  0.18956280    -0.10300
H240        H  0.37586572  0.36464547  0.20013811     0.09300
H241        H  0.41168121  0.43929282  0.13249565     0.06900
H242        H  0.37401826  0.47621536  0.19957819     0.06700
O243        O  0.28807473  0.46938844  0.43032410    -0.72300
O244        O  0.25418628  0.04225517  0.46387006    -0.73300
O245        O  0.32664893  0.03913680  0.46248543    -0.61900
O246        O  0.21585816  0.47260365  0.43151890    -0.70300
O247        O  0.19526128  0.43249441  0.46563733    -0.69900
O248        O  0.30614040  0.49912360  0.49666855    -0.61100
O249        O  0.23380505  0.50211813  0.49798592    -0.73600
O250        O  0.26766119  0.42950442  0.46453525    -0.72400
Cu251      Cu  0.27189543  0.00726347  0.44586622     1.04600
Cu252      Cu  0.24996742  0.46440736  0.48237190     1.04300
C253        C  0.28226209  0.43729750  0.44193366     0.93900
C254        C  0.23968251  0.03433253  0.48651740     0.93000
C255        C  0.33365230  0.03045556  0.48472885     0.85200
C256        C  0.18840630  0.44110039  0.44332303     0.91400
C257        C  0.21915881  0.08886303  0.53968123     0.03800
C258        C  0.22344258  0.05941606  0.52628914    -0.12400
C259        C  0.23132755  0.06345532  0.49996697     0.01300
C260        C  0.23481922  0.09746405  0.48708513    -0.10900
C261        C  0.23036707  0.12709896  0.50014305     0.03700
C262        C  0.22149280  0.12197371  0.52632650    -0.10300
H263        H  0.22220470  0.53415269  0.53666078     0.09300
H264        H  0.24212191  0.10143967  0.46695710     0.06900
H265        H  0.21793966  0.14456335  0.53661238     0.06700
C266        C  0.15877354  0.06189935  0.72791622     0.03800
C267        C  0.15198148  0.02676102  0.74081565    -0.12400
C268        C  0.13487860  0.01782996  0.76538171     0.01300
C269        C  0.12583065  0.04536042  0.77723804    -0.10900
C270        C  0.13258531  0.08087641  0.76456526     0.03700
C271        C  0.14939943  0.08902076  0.73988690    -0.10300
H272        H  0.15799383  0.00534091  0.73105697     0.09300
H273        H  0.11197929  0.03830461  0.79600087     0.06900
H274        H  0.15390637  0.11565718  0.72952843     0.06700
O275        O  0.02868108  0.09972718  0.79817562    -0.72300
O276        O  0.13818000  0.16854288  0.83045488    -0.73300
O277        O  0.06438311  0.16947346  0.83014326    -0.61900
O278        O  0.10290203  0.09902585  0.79850436    -0.70300
O279        O  0.12389744  0.13890389  0.76431338    -0.69900
O280        O  0.08489791  0.20917606  0.79586487    -0.61100
O281        O  0.15901017  0.20853929  0.79629669    -0.73600
O282        O  0.04933538  0.13925445  0.76381584    -0.72400
Cu283      Cu  0.08273981  0.13276509  0.81546496     1.04600
Cu284      Cu  0.10497868  0.17534884  0.77887258     1.04300
C285        C  0.02172022  0.10805815  0.77581589     0.93900
C286        C  0.16581174  0.19989365  0.81861921     0.93000
C287        C  0.06932644  0.20100860  0.81823572     0.85200
C288        C  0.11942423  0.10768091  0.77639753     0.91400
C289        C  0.15141900  0.06476925  0.65630866    -0.13700
C290        C  0.19013817  0.07271522  0.64852236     0.16600
C291        C  0.21956725  0.07838109  0.66711910     0.02900
C292        C  0.20907880  0.07538901  0.69308319    -0.12200
C293        C  0.17012647  0.06699929  0.70066693    -0.03300
C294        C  0.14124661  0.06160995  0.68207472     0.02200
C295        C  0.19900697  0.07599323  0.62084664     0.09000
N296        N  0.25963184  0.08639841  0.66008292     0.65400
H297        H  0.23111590  0.07901647  0.70744352     0.18300
N298        N  0.10126026  0.55280296  0.68923028     0.75800
H299        H  0.12873819  0.56058309  0.64225233     0.09800
C300        C  0.17598905  0.04281498  0.60446639     0.03500
C301        C  0.18295205  0.04802856  0.57816180    -0.05200
C302        C  0.21332365  0.08535959  0.56777195    -0.23600
C303        C  0.23718036  0.11840828  0.58433297     0.12700
C304        C  0.22907735  0.11345001  0.61059906    -0.12800
N305        N  0.14597098  0.50348298  0.61432993     0.64400
H306        H  0.16466168  0.52249232  0.56570552     0.12300
N307        N  0.27038914  0.15658041  0.57505511     0.61100
H308        H  0.24679134  0.13883732  0.62325474     0.08400
O309        O  0.07521211  0.51779751  0.69738595    -0.40400
O310        O  0.09446000  0.58175043  0.69130168    -0.39600
O311        O  0.28996356  0.10838646  0.67405878    -0.39600
O312        O  0.26444443  0.06906048  0.64109321    -0.37300
O313        O  0.29532650  0.15715203  0.55890402    -0.38200
O314        O  0.27786104  0.18958757  0.58527052    -0.34300
O315        O  0.11194660  0.48284957  0.60334038    -0.35800
O316        O  0.15477188  0.48777506  0.63263247    -0.40000
C317        C  0.37483624  0.43660021  0.27388300    -0.13700
C318        C  0.34016921  0.40030946  0.28193247     0.16600
C319        C  0.31557731  0.37070674  0.26375005     0.02900
C320        C  0.32676638  0.37795995  0.23794430    -0.12200
C321        C  0.36211772  0.41378806  0.22995413    -0.03300
C322        C  0.38647555  0.44354702  0.24818863     0.02200
C323        C  0.33051473  0.39419613  0.30949240     0.09000
N324        N  0.27992188  0.33294361  0.27116590     0.65400
H325        H  0.30807992  0.35515830  0.22397542     0.18300
N326        N  0.42371451  0.48014309  0.24116212     0.75800
H327        H  0.39365032  0.45924871  0.28790066     0.09800
C328        C  0.35732082  0.39160365  0.32702648     0.03500
C329        C  0.34795597  0.38787504  0.35307335    -0.05200
C330        C  0.31228050  0.38613092  0.36200596    -0.23600
C331        C  0.28514019  0.38816520  0.34442859     0.12700
C332        C  0.29490577  0.39266301  0.31838296    -0.12800
N333        N  0.39376621  0.39226153  0.31871699     0.64400
H334        H  0.36860250  0.38607100  0.36655854     0.12300
N335        N  0.24731544  0.38472226  0.35256436     0.61100
H336        H  0.27434786  0.39452238  0.30484938     0.08400
O337        O  0.44901440  0.47857173  0.22629146    -0.40400
O338        O  0.43360631  0.51333378  0.25208266    -0.39600
O339        O  0.24848885  0.31729561  0.25728942    -0.39600
O340        O  0.28096632  0.31320314  0.29022476    -0.37300
O341        O  0.23392447  0.40498209  0.34141191    -0.38200
O342        O  0.22487303  0.85801920  0.36893896    -0.34300
O343        O  0.42571314  0.40940309  0.33211383    -0.35800
O344        O  0.39314461  0.37262281  0.29927007    -0.40000
C345        C  0.46054009  0.06990585  0.65390131    -0.13700
C346        C  0.42367181  0.06464761  0.64466752     0.16600
C347        C  0.39202231  0.05749055  0.66193409     0.02900
C348        C  0.39835349  0.05553826  0.68815757    -0.12200
C349        C  0.43529788  0.06048524  0.69741079    -0.03300
C350        C  0.46669189  0.06781034  0.67994617     0.02200
C351        C  0.42049387  0.06907842  0.61694345     0.09000
N352        N  0.35365127  0.05223674  0.65333355     0.65400
H353        H  0.37420264  0.04989152  0.70150333     0.18300
N354        N  0.00495669  0.07296803  0.68816739     0.75800
H355        H  0.98485015  0.07567046  0.64063317     0.09800
C356        C  0.42097301  0.10346247  0.60646289     0.03500
C357        C  0.41893648  0.10660960  0.57999724    -0.05200
C358        C  0.41713983  0.07663409  0.56374522    -0.23600
C359        C  0.41670960  0.04217165  0.57424422     0.12700
C360        C  0.41825555  0.03881447  0.60078685    -0.12800
N361        N  0.92341723  0.13528932  0.62227037     0.64400
H362        H  0.91882945  0.13280726  0.57194669     0.12300
N363        N  0.41539816  0.51087056  0.55843074     0.61100
H364        H  0.41836773  0.01269844  0.60896318     0.08400
O365        O  0.03785437  0.10153326  0.67890059    -0.40400
O366        O  0.00590842  0.04698171  0.70269329    -0.39600
O367        O  0.33846256  0.03513801  0.63239526    -0.39600
O368        O  0.33316330  0.06182023  0.66763150    -0.37300
O369        O  0.43590163  0.52011103  0.53803377    -0.38200
O370        O  0.39701214  0.47426299  0.56598327    -0.34300
O371        O  0.94683156  0.14779808  0.64130622    -0.35800
O372        O  0.90471242  0.15341667  0.61593309    -0.40000
C373        C  0.43019691  0.35143833  0.59791056    -0.13700
C374        C  0.43110570  0.32385810  0.61530917     0.16600
C375        C  0.42718375  0.28724393  0.60630282     0.02900
C376        C  0.42288402  0.27905897  0.58018068    -0.12200
C377        C  0.42270743  0.30687850  0.56267605    -0.03300
C378        C  0.42623489  0.34343250  0.57166046     0.02200
C379        C  0.43489416  0.33289795  0.64293790     0.09000
N380        N  0.42715893  0.25795178  0.62348907     0.65400
H381        H  0.41958421  0.25066194  0.57346461     0.18300
N382        N  0.42659933  0.37289730  0.55440841     0.75800
H383        H  0.43299797  0.37952737  0.60480260     0.09800
C384        C  0.47067254  0.36590160  0.65334543     0.03500
C385        C  0.47289956  0.37232534  0.67972346    -0.05200
C386        C  0.44063865  0.34619770  0.69604555    -0.23600
C387        C  0.40473753  0.31328885  0.68555498     0.12700
C388        C  0.40220061  0.30740965  0.65911409    -0.12800
N389        N  0.50522218  0.39248551  0.63760594     0.64400
H390        H  0.50033258  0.39777641  0.68766072     0.12300
N391        N  0.37124973  0.28492485  0.70139009     0.61100
H392        H  0.37482704  0.28200958  0.65107727     0.08400
O393        O  0.40635982  0.38993058  0.55953413    -0.40400
O394        O  0.44982476  0.38453573  0.53515181    -0.39600
O395        O  0.39845973  0.22132253  0.62276532    -0.39600
O396        O  0.45561652  0.26848326  0.63941946    -0.37300
O397        O  0.33489357  0.26978440  0.69372260    -0.38200
O398        O  0.37792551  0.27161264  0.72176092    -0.34300
O399        O  0.02637536  0.42999231  0.64264221    -0.35800
O400        O  0.01723740  0.37806176  0.62032090    -0.40000
C401        C  0.13108962  0.17584401  0.32288932    -0.13700
C402        C  0.09250935  0.14663146  0.31383174     0.16600
C403        C  0.05903322  0.12775077  0.33084773     0.02900
C404        C  0.06503529  0.13877136  0.35661090    -0.12200
C405        C  0.10363431  0.16830305  0.36580991    -0.03300
C406        C  0.13703583  0.18747994  0.34852885     0.02200
C407        C  0.08734619  0.13938976  0.28609959     0.09000
N408        N  0.51864847  0.09863881  0.32218209     0.65400
H409        H  0.53933286  0.12380147  0.36965700     0.18300
N410        N  0.17643799  0.22027301  0.35622482     0.75800
H411        H  0.15641209  0.19106469  0.30958114     0.09800
C412        C  0.08347246  0.16658444  0.26957089     0.03500
C413        C  0.08069354  0.15953991  0.24325323    -0.05200
C414        C  0.08127756  0.12583116  0.23311705    -0.23600
C415        C  0.08496523  0.09851709  0.24976037     0.12700
C416        C  0.08879695  0.10618524  0.27601003    -0.12800
N417        N  0.08284508  0.20159896  0.27910045     0.64400
H418        H  0.07796252  0.18049611  0.23053134     0.12300
N419        N  0.08364857  0.06240066  0.24050601     0.61100
H420        H  0.09196851  0.08556421  0.28879800     0.08400
O421        O  0.20861121  0.22334978  0.34698024    -0.40400
O422        O  0.17915846  0.24896564  0.36961920    -0.39600
O423        O  0.51304936  0.07002501  0.30761441    -0.39600
O424        O  0.48799699  0.09928491  0.33091889    -0.37300
O425        O  0.10506513  0.04972917  0.25095025    -0.38200
O426        O  0.55778401  0.04054821  0.22392178    -0.34300
O427        O  0.09948976  0.23449006  0.26650030    -0.35800
O428        O  0.06292983  0.19896029  0.29898992    -0.40000
C429        C  0.12643814  0.40794000  0.26611796    -0.13700
C430        C  0.09523589  0.40271364  0.28281865     0.16600
C431        C  0.06021702  0.40200463  0.27308555     0.02900
C432        C  0.05726034  0.40645719  0.24683925    -0.12200
C433        C  0.08810679  0.41108522  0.23002607    -0.03300
C434        C  0.12319157  0.41184136  0.23976160     0.02200
C435        C  0.10014758  0.39911082  0.31047011     0.09000
N436        N  0.02735206  0.39642971  0.28947075     0.65400
H437        H  0.03051043  0.40624600  0.23940576     0.18300
N438        N  0.15519939  0.41572489  0.22323513     0.75800
H439        H  0.15327046  0.40846651  0.27368583     0.09800
C440        C  0.10019055  0.36496113  0.32100314     0.03500
C441        C  0.10354054  0.36253983  0.34744391    -0.05200
C442        C  0.10635554  0.39310758  0.36360996    -0.23600
C443        C  0.10713692  0.42765604  0.35297470     0.12700
C444        C  0.10435425  0.43033601  0.32649725    -0.12800
N445        N  0.09605036  0.33226884  0.30530402     0.64400
H446        H  0.10353009  0.33629875  0.35554761     0.12300
N447        N  0.10956843  0.45957396  0.36869711     0.61100
H448        H  0.10439762  0.45654613  0.31830869     0.08400
O449        O  0.14659046  0.39593041  0.20273377    -0.40400
O450        O  0.19206989  0.43602241  0.23018928    -0.39600
O451        O  0.50825097  0.41480675  0.28473816    -0.39600
O452        O  0.51476609  0.37035597  0.30723440    -0.37300
O453        O  0.12994329  0.49622151  0.36131923    -0.38200
O454        O  0.08811976  0.95107361  0.38874256    -0.34300
O455        O  0.11553314  0.31449671  0.31066787    -0.35800
O456        O  0.07010921  0.31845158  0.28758340    -0.40000
C457        C  0.04833239  0.27423276  0.94051442    -0.13700
C458        C  0.01481719  0.23815924  0.94988115     0.16600
C459        C  0.48979096  0.20666206  0.93282164     0.02900
C460        C  0.49905345  0.21222981  0.90669145    -0.12200
C461        C  0.03283133  0.24819120  0.89728155    -0.03300
C462        C  0.05794797  0.27955594  0.91447555     0.02200
C463        C  0.00607586  0.23467717  0.97752578     0.09000
N464        N  0.45538211  0.16888951  0.94164590     0.65400
H465        H  0.47990931  0.18818163  0.89354315     0.18300
N466        N  0.09374848  0.31640083  0.90600708     0.75800
H467        H  0.06751109  0.29823282  0.95369311     0.09800
C468        C  0.03143252  0.22992320  0.99496628     0.03500
C469        C  0.02256285  0.22677477  0.02101788    -0.05200
C470        C  0.98838407  0.22796655  0.03011166    -0.23600
C471        C  0.46265056  0.23257366  0.01253740     0.12700
C472        C  0.47219419  0.23636690  0.98645272    -0.12800
N473        N  0.06561937  0.22710854  0.98633102     0.64400
H474        H  0.04238069  0.22314062  0.03425944     0.12300
N475        N  0.42613565  0.23196684  0.02062472     0.61100
H476        H  0.45254998  0.23971426  0.97291714     0.08400
O477        O  0.10302674  0.35007716  0.91600183    -0.40400
O478        O  0.11836275  0.31495732  0.89046643    -0.39600
O479        O  0.42425563  0.14962126  0.92774046    -0.39600
O480        O  0.45736111  0.15270640  0.96220310    -0.37300
O481        O  0.41494388  0.25402399  0.00940640    -0.38200
O482        O  0.40244660  0.20600557  0.03679139    -0.34300
O483        O  0.10154133  0.25635312  0.98980945    -0.35800
O484        O  0.06001956  0.19437352  0.97673052    -0.40000
C485        C  0.26257258  0.52772213  0.98685810    -0.13700
C486        C  0.26717565  0.49576440  0.97780343     0.16600
C487        C  0.27609183  0.47273195  0.99502407     0.02900
C488        C  0.27940754  0.48199381  0.02106915    -0.12200
C489        C  0.27487271  0.51405528  0.03023192    -0.03300
C490        C  0.26670226  0.53748750  0.01279253     0.02200
C491        C  0.26101009  0.48625683  0.95034002     0.09000
N492        N  0.28211553  0.44028391  0.98647536     0.65400
H493        H  0.28587175  0.46417097  0.03437508     0.18300
N494        N  0.26359558  0.07177961  0.02086273     0.75800
H495        H  0.25606167  0.54547770  0.97350820     0.09800
C496        C  0.22535262  0.45165956  0.94120530     0.03500
C497        C  0.22173384  0.44337807  0.91504623    -0.05200
C498        C  0.25260127  0.46905654  0.89779923    -0.23600
C499        C  0.28823860  0.00387928  0.90699162     0.12700
C500        C  0.29195948  0.01188763  0.93322461    -0.12800
N501        N  0.19271313  0.42478610  0.95810991     0.64400
H502        H  0.19456656  0.41665714  0.90803704     0.12300
N503        N  0.32038702  0.03170669  0.89011023     0.61100
H504        H  0.31909248  0.03845517  0.94040671     0.08400
O505        O  0.23734722  0.07854437  0.01092800    -0.40400
O506        O  0.28974100  0.09776868  0.03583079    -0.39600
O507        O  0.29927063  0.44290194  0.96537912    -0.39600
O508        O  0.27394557  0.41067179  0.00108873    -0.37300
O509        O  0.31200760  0.04063704  0.86866891    -0.38200
O510        O  0.35701877  0.05066111  0.89763041    -0.34300
O511        O  0.18197031  0.43891178  0.97627035    -0.35800
O512        O  0.17223998  0.38703918  0.95368047    -0.40000
C513        C  0.26822726  0.26248507  0.99292056    -0.13700
C514        C  0.26512983  0.23138177  0.97720134     0.16600
C515        C  0.26741362  0.19863116  0.98803888     0.02900
C516        C  0.27182629  0.19732860  0.01443769    -0.12200
C517        C  0.27354441  0.22771964  0.03028756    -0.03300
C518        C  0.27206722  0.26092129  0.01939154     0.02200
C519        C  0.25959024  0.23387179  0.94950136     0.09000
N520        N  0.26445895  0.16619172  0.97265395     0.65400
H521        H  0.27339726  0.17204047  0.02276314     0.18300
N522        N  0.27323127  0.29249319  0.03486293     0.75800
H523        H  0.26663881  0.28770281  0.98450625     0.09800
C524        C  0.22415580  0.23228755  0.93973218     0.03500
C525        C  0.22118036  0.23670929  0.91346705    -0.05200
C526        C  0.25228030  0.24190277  0.89666156    -0.23600
C527        C  0.28746076  0.24286226  0.90641277     0.12700
C528        C  0.29083455  0.23926253  0.93278495    -0.12800
N529        N  0.19090113  0.22581318  0.95608441     0.64400
H530        H  0.19422120  0.23605565  0.90600715     0.12300
N531        N  0.31942062  0.24659047  0.88988857     0.61100
H532        H  0.31788902  0.24025727  0.94037598     0.08400
O533        O  0.25238336  0.28361001  0.05510203    -0.40400
O534        O  0.29177963  0.32895040  0.02702885    -0.39600
O535        O  0.28734313  0.15180172  0.97705678    -0.39600
O536        O  0.23670548  0.14945405  0.95614398    -0.37300
O537        O  0.31073339  0.22703535  0.86928973    -0.38200
O538        O  0.35624071  0.26620412  0.89700867    -0.34300
O539        O  0.17026872  0.24246560  0.95094996    -0.35800
O540        O  0.17945750  0.20042127  0.97420367    -0.40000
C541        C  0.27776215  0.72424680  0.05803868     0.03800
C542        C  0.24861328  0.68929971  0.07117900    -0.12400
C543        C  0.25386599  0.68374018  0.09702817     0.01300
C544        C  0.28850216  0.71395472  0.10972041    -0.10900
C545        C  0.31825714  0.74891721  0.09674594     0.03700
C546        C  0.31238691  0.75407852  0.07090022    -0.10300
H547        H  0.22249643  0.66591047  0.06093395     0.09300
H548        H  0.29319830  0.70937706  0.12950362     0.06900
H549        H  0.33552694  0.78029438  0.06040211     0.06700
C550        C  0.24773524  0.74802734  0.86927942     0.03800
C551        C  0.27697850  0.78367071  0.85667185    -0.12400
C552        C  0.27070351  0.79139901  0.83139511     0.01300
C553        C  0.23506890  0.76268741  0.81874577    -0.10900
C554        C  0.20532115  0.72722025  0.83120011     0.03700
C555        C  0.21209595  0.71994078  0.85642585    -0.10300
H556        H  0.30369998  0.80605374  0.86696118     0.09300
H557        H  0.22962788  0.76879744  0.79944143     0.06900
H558        H  0.18916687  0.69296825  0.86643053     0.06700
O559        O  0.25338203  0.67227049  0.46440505    -0.72300
O560        O  0.28815344  0.77994113  0.43117906    -0.73300
O561        O  0.32667163  0.74824178  0.46295991    -0.61900
O562        O  0.21506778  0.70402243  0.43281379    -0.70300
O563        O  0.19544018  0.72336604  0.46710236    -0.69900
O564        O  0.30728835  0.76769325  0.49730411    -0.61100
O565        O  0.26875738  0.79947701  0.46548861    -0.73600
O566        O  0.23399391  0.69158584  0.49882010    -0.72400
Cu567      Cu  0.27151981  0.72546761  0.44667556     1.04600
Cu568      Cu  0.25068548  0.74620986  0.48337433     1.04300
C569        C  0.23905401  0.66516846  0.48706793     0.93900
C570        C  0.28292099  0.80635703  0.44276875     0.93000
C571        C  0.33437965  0.76393164  0.48517556     0.85200
C572        C  0.18787929  0.70768037  0.44488654     0.91400
O573        O  0.03082058  0.89551583  0.79822770    -0.72300
O574        O  0.13948058  0.93270563  0.83117759    -0.73300
O575        O  0.10619950  0.96975422  0.79961833    -0.61900
O576        O  0.06425327  0.85863688  0.82990760    -0.70300
O577        O  0.08434056  0.83993696  0.79553545    -0.69900
O578        O  0.12679781  0.95139274  0.76532694    -0.61100
O579        O  0.15965895  0.91402253  0.79683845    -0.73600
O580        O  0.05127500  0.87728293  0.76381812    -0.72400
Cu581      Cu  0.08443522  0.91477130  0.81590617     1.04600
Cu582      Cu  0.10620204  0.89501143  0.77918551     1.04300
C583        C  0.02413288  0.88138527  0.77560195     0.93900
C584        C  0.16649555  0.92838826  0.81939256     0.93000
C585        C  0.12254438  0.97799910  0.77748061     0.85200
C586        C  0.06866401  0.83204589  0.81787022     0.91400
C587        C  0.27892588  0.02238806  0.05799213     0.03800
C588        C  0.31363606  0.02784136  0.07098348    -0.12400
C589        C  0.31953764  0.03879012  0.09679193     0.01300
C590        C  0.28993854  0.54385735  0.10961681    -0.10900
C591        C  0.25496580  0.03841705  0.09693580     0.03700
C592        C  0.24923236  0.02669004  0.07126275    -0.10300
H593        H  0.33687381  0.02523672  0.06061247     0.09300
H594        H  0.29482572  0.55343017  0.12930790     0.06900
H595        H  0.22243780  0.02242900  0.06122148     0.06700
C596        C  0.24715814  0.95776360  0.87052047     0.03800
C597        C  0.27550757  0.95065071  0.85787201    -0.12400
C598        C  0.26912510  0.93750530  0.83245665     0.01300
C599        C  0.23410792  0.93191737  0.81975472    -0.10900
C600        C  0.20520583  0.93844803  0.83223373     0.03700
C601        C  0.21210559  0.95154677  0.85763117    -0.10300
H602        H  0.30187310  0.95429076  0.86814325     0.09300
H603        H  0.22867565  0.92119638  0.80029990     0.06900
H604        H  0.18989531  0.95626676  0.86764819     0.06700
C605        C  0.98020458  0.72413489  0.05791330     0.03800
C606        C  0.97492293  0.75325267  0.07087654    -0.12400
C607        C  0.96379617  0.74788606  0.09675094     0.01300
C608        C  0.45921224  0.71346072  0.10976575    -0.10900
C609        C  0.96497848  0.68429955  0.09714795     0.03700
C610        C  0.97589504  0.69017703  0.07124304    -0.10300
H611        H  0.97809853  0.77933208  0.06046886     0.09300
H612        H  0.44980198  0.70865779  0.12955655     0.06900
H613        H  0.97921355  0.66738966  0.06102117     0.06700
C614        C  0.04111942  0.75241204  0.86949008     0.03800
C615        C  0.04563278  0.78644480  0.85617435    -0.12400
C616        C  0.05775874  0.79291585  0.83048806     0.01300
C617        C  0.06378432  0.76387139  0.81790914    -0.10900
C618        C  0.05862683  0.72914018  0.83084466     0.03700
C619        C  0.04688465  0.72352123  0.85662611    -0.10300
H620        H  0.04139666  0.80876896  0.86626810     0.09300
H621        H  0.07396188  0.76906348  0.79826440     0.06900
H622        H  0.04406883  0.69766426  0.86711945     0.06700
O623        O  0.41989237  0.00897341  0.12945306    -0.72300
O624        O  0.45999901  0.61923038  0.09825627    -0.73300
O625        O  0.99473423  0.58359641  0.13010161    -0.61900
O626        O  0.38535344  0.54477711  0.09777013    -0.70300
O627        O  0.36525318  0.56352628  0.13211582    -0.71700
O628        O  0.47448839  0.60218062  0.16445287    -0.61100
O629        O  0.43997793  0.63812397  0.13257148    -0.73600
O630        O  0.39968475  0.52766662  0.16377912    -0.72400
Cu631      Cu  0.44074358  0.56352688  0.11272450     1.04600
Cu632      Cu  0.41917840  0.58355037  0.14941690     1.04300
C633        C  0.40422087  0.00110508  0.15177927     0.93900
C634        C  0.45514715  0.64569761  0.11009850     0.93000
C635        C  0.00152589  0.59788675  0.15268666     0.85200
C636        C  0.35830835  0.54898040  0.10960667     0.91400
C637        C  0.10988037  0.88876010  0.39138178     0.03800
C638        C  0.14403167  0.91851315  0.40463445    -0.12400
C639        C  0.14949147  0.91293222  0.43046900     0.01300
C640        C  0.11990297  0.87747242  0.44305756    -0.10900
C641        C  0.08580827  0.84717991  0.42999010     0.03700
C642        C  0.08085575  0.85323478  0.40415400    -0.10300
H643        H  0.16721331  0.94507897  0.39442069     0.09300
H644        H  0.12438015  0.87258762  0.46282513     0.06900
H645        H  0.05505643  0.82987105  0.39367674     0.06700
C646        C  0.08341467  0.91707908  0.20265416     0.03800
C647        C  0.04786429  0.88877425  0.18980481    -0.12400
C648        C  0.04091619  0.89604640  0.16460970     0.01300
C649        C  0.07038285  0.93173906  0.15221736    -0.10900
C650        C  0.10584828  0.96065026  0.16490740     0.03700
C651        C  0.11235212  0.95289622  0.19011338    -0.10300
H652        H  0.02510412  0.86169972  0.19980794     0.09300
H653        H  0.06481657  0.93788451  0.13295068     0.06900
H654        H  0.13896546  0.97541051  0.20042658     0.06700
C655        C  0.10817958  0.67856497  0.39338444     0.03800
C656        C  0.14139632  0.68197030  0.40721436    -0.12400
C657        C  0.14852885  0.69621336  0.43236891     0.01300
C658        C  0.12018056  0.70414535  0.44430124    -0.10900
C659        C  0.08588014  0.69948287  0.43110229     0.03700
C660        C  0.08020983  0.68675644  0.40561083    -0.10300
H661        H  0.16281093  0.67535905  0.39788538     0.09300
H662        H  0.12567240  0.71548479  0.46361540     0.06900
H663        H  0.05488951  0.68473668  0.39490544     0.06700
C664        C  0.07860853  0.62021324  0.20512364     0.03800
C665        C  0.10836342  0.61591422  0.19196969    -0.12400
C666        C  0.10383821  0.60634766  0.16594609     0.01300
C667        C  0.06971614  0.60250751  0.15296288    -0.10900
C668        C  0.03991679  0.60732343  0.16576193     0.03700
C669        C  0.04491932  0.61667183  0.19184402    -0.10300
H670        H  0.13413449  0.61835178  0.20236871     0.09300
H671        H  0.06557993  0.59428027  0.13303097     0.06900
H672        H  0.02159936  0.61915484  0.20221101     0.06700
O673        O  0.19423961  0.61743974  0.09824903    -0.72300
O674        O  0.12517116  0.00777670  0.13039949    -0.73300
O675        O  0.12418077  0.58127516  0.13065774    -0.61900
O676        O  0.19507086  0.54400891  0.09807748    -0.70300
O677        O  0.23495928  0.56404258  0.13208626    -0.69900
O678        O  0.16391041  0.60104373  0.16473804    -0.61100
O679        O  0.16494878  0.52753590  0.16446627    -0.73600
O680        O  0.23409875  0.63765256  0.13227943    -0.72400
Cu681      Cu  0.15824942  0.56192727  0.11319714     1.04600
Cu682      Cu  0.20089024  0.58331375  0.14957312     1.04300
C683        C  0.22575832  0.64467885  0.10993512     0.93900
C684        C  0.13361365  0.00035816  0.15259515     0.93000
C685        C  0.13227627  0.59626966  0.15305462     0.85200
C686        C  0.22670850  0.54879962  0.10975510     0.91400
O687        O  0.45628407  0.67105727  0.46325784    -0.72300
O688        O  0.02642659  0.78059444  0.43086503    -0.73300
O689        O  0.02679196  0.70669411  0.43126938    -0.61900
O690        O  0.45608746  0.74524901  0.46307750    -0.70300
O691        O  0.99576643  0.76530341  0.49716931    -0.69900
O692        O  0.06613799  0.72668996  0.46551294    -0.61100
O693        O  0.06598860  0.80073003  0.46502560    -0.73600
O694        O  0.99566532  0.69107260  0.49749485    -0.72400
Cu695      Cu  0.48997971  0.72517674  0.44594809     1.04600
Cu696      Cu  0.03226427  0.74665572  0.48247397     1.04300
C697        C  0.46443446  0.66378538  0.48557717     0.93900
C698        C  0.05780982  0.80783765  0.44265734     0.93000
C699        C  0.05808875  0.71117004  0.44326108     0.85200
C700        C  0.46446632  0.76097591  0.48529591     0.91400
C701        C  0.41681983  0.79585917  0.53536679     0.03800
C702        C  0.38193931  0.79022655  0.52253267    -0.12400
C703        C  0.37399751  0.77557400  0.49742491     0.01300
C704        C  0.40216518  0.76775942  0.48505123    -0.10900
C705        C  0.43716223  0.77311868  0.49766994     0.03700
C706        C  0.44424080  0.78729098  0.52286190    -0.10300
H707        H  0.36010380  0.79543623  0.53260767     0.09300
H708        H  0.39597276  0.75585493  0.46587175     0.06900
H709        H  0.97058924  0.79080154  0.53309774     0.06700
C710        C  0.44491210  0.85485709  0.72378206     0.03800
C711        C  0.47965483  0.86043117  0.73681814    -0.12400
C712        C  0.48550237  0.87142339  0.76263369     0.01300
C713        C  0.45571033  0.87619408  0.77543500    -0.10900
C714        C  0.42090416  0.87104146  0.76266796     0.03700
C715        C  0.41571992  0.86025603  0.73681631    -0.10300
H716        H  0.50253340  0.85703186  0.72659750     0.09300
H717        H  0.46030293  0.88528213  0.79521695     0.06900
H718        H  0.38967476  0.85734508  0.72650605     0.06700
O719        O  0.29041169  0.83835857  0.79674240    -0.72300
O720        O  0.35859495  0.94839716  0.76477922    -0.73300
O721        O  0.36029876  0.87543330  0.76414967    -0.61900
O722        O  0.28891657  0.91154585  0.79738677    -0.70300
O723        O  0.32889368  0.93162094  0.83135112    -0.69900
O724        O  0.40014844  0.89528794  0.79817396    -0.61100
O725        O  0.39870035  0.96853255  0.79869294    -0.73600
O726        O  0.33014387  0.85818239  0.83082186    -0.72400
Cu727      Cu  0.32312755  0.89268776  0.77962046     1.04600
Cu728      Cu  0.36588943  0.91410230  0.81593508     1.04300
C729        C  0.29876271  0.83098415  0.81897984     0.93900
C730        C  0.39004338  0.97571343  0.77647684     0.93000
C731        C  0.39215217  0.88054594  0.77570821     0.85200
C732        C  0.29718568  0.92675535  0.81973089     0.91400
C733        C  0.41349153  0.58138105  0.53610890     0.03800
C734        C  0.44222267  0.61727209  0.52353732    -0.12400
C735        C  0.43663514  0.62410142  0.49797045     0.01300
C736        C  0.40216708  0.59417757  0.48495793    -0.10900
C737        C  0.37286872  0.55834488  0.49738862     0.03700
C738        C  0.37903139  0.55198816  0.52294087    -0.10300
H739        H  0.96821137  0.64037246  0.53401994     0.09300
H740        H  0.39715846  0.59964848  0.46541294     0.06900
H741        H  0.35609759  0.02511420  0.53302759     0.06700
C742        C  0.44014862  0.55689486  0.72520370     0.03800
C743        C  0.41131371  0.52167911  0.73830654    -0.12400
C744        C  0.41765521  0.51518095  0.76380342     0.01300
C745        C  0.45294195  0.54479833  0.77626765    -0.10900
C746        C  0.48215246  0.58025473  0.76348449     0.03700
C747        C  0.47498702  0.58658009  0.73810603    -0.10300
H748        H  0.38500329  0.99832137  0.72812971     0.09300
H749        H  0.45854485  0.53938390  0.79569487     0.06900
H750        H  0.99738977  0.61364630  0.72793768     0.06700
O751        O  0.45842367  0.80771389  0.09764941    -0.72300
O752        O  0.42072170  0.87846989  0.12968795    -0.73300
O753        O  0.99455699  0.87733711  0.12978261    -0.61900
O754        O  0.38473941  0.80868429  0.09756050    -0.70300
O755        O  0.36411621  0.76890297  0.13182071    -0.69900
O756        O  0.47378965  0.83734673  0.16394358    -0.61100
O757        O  0.40006753  0.83858924  0.16388600    -0.73600
O758        O  0.43777152  0.76777874  0.13183068    -0.72400
Cu759      Cu  0.44036441  0.84449387  0.11250690     1.04600
Cu760      Cu  0.41819803  0.80177627  0.14904974     1.04300
C761        C  0.45331390  0.77604619  0.10945749     0.93900
C762        C  0.40499849  0.87014867  0.15201230     0.93000
C763        C  0.00141979  0.86866622  0.15208099     0.85200
C764        C  0.35730022  0.77721108  0.10942036     0.91400
C765        C  0.30436460  0.88256562  0.38975368     0.03800
C766        C  0.30075246  0.84904939  0.40323622    -0.12400
C767        C  0.29142610  0.84418007  0.42936129     0.01300
C768        C  0.28671762  0.87395783  0.44201277    -0.10900
C769        C  0.29074322  0.90801966  0.42882025     0.03700
C770        C  0.29978006  0.91215312  0.40264627    -0.10300
H771        H  0.30368518  0.82600868  0.39304089     0.09300
H772        H  0.27889281  0.87008801  0.46206477     0.06900
H773        H  0.30237175  0.93785553  0.39207099     0.06700
C774        C  0.37296712  0.91942922  0.20253792     0.03800
C775        C  0.37979884  0.89111113  0.18983368    -0.12400
C776        C  0.39377656  0.89796300  0.16449316     0.01300
C777        C  0.40005149  0.93330468  0.15182466    -0.10900
C778        C  0.39306791  0.96182728  0.16426326     0.03700
C779        C  0.37894649  0.95427682  0.18954498    -0.10300
H780        H  0.37582685  0.86462594  0.20012707     0.09300
H781        H  0.41169493  0.93929675  0.13249476     0.06900
H782        H  0.37393605  0.97617453  0.19955441     0.06700
O783        O  0.28801459  0.96934411  0.43029283    -0.72300
O784        O  0.25417969  0.54225141  0.46389066    -0.73300
O785        O  0.32665852  0.53916689  0.46252269    -0.61900
O786        O  0.21581820  0.97260033  0.43150549    -0.70300
O787        O  0.19522868  0.93250115  0.46562835    -0.69900
O788        O  0.30613189  0.99910018  0.49663417    -0.61100
O789        O  0.23381582  0.00212905  0.49796855    -0.73600
O790        O  0.26760659  0.92947188  0.46450929    -0.72400
Cu791      Cu  0.27192068  0.50728224  0.44589235     1.04600
Cu792      Cu  0.24994704  0.96439825  0.48234998     1.04300
C793        C  0.28219247  0.93725071  0.44190406     0.93900
C794        C  0.23966628  0.53432034  0.48653545     0.93000
C795        C  0.33365843  0.53048438  0.48476643     0.85200
C796        C  0.18836364  0.94110767  0.44331686     0.91400
C797        C  0.21911822  0.58883524  0.53969723     0.03800
C798        C  0.22340793  0.55939208  0.52630486    -0.12400
C799        C  0.23129809  0.56343501  0.49998361     0.01300
C800        C  0.23478921  0.59744386  0.48710242    -0.10900
C801        C  0.23033338  0.62707679  0.50016014     0.03700
C802        C  0.22145354  0.62194779  0.52634306    -0.10300
H803        H  0.22223735  0.03417618  0.53664566     0.09300
H804        H  0.24209630  0.60142203  0.46697500     0.06900
H805        H  0.21789674  0.64453538  0.53662867     0.06700
C806        C  0.15875958  0.56190872  0.72793641     0.03800
C807        C  0.15193694  0.52674614  0.74081943    -0.12400
C808        C  0.13485234  0.51781354  0.76539112     0.01300
C809        C  0.12582594  0.54535072  0.77726009    -0.10900
C810        C  0.13260549  0.58088431  0.76459998     0.03700
C811        C  0.14943564  0.58904849  0.73992680    -0.10300
H812        H  0.15792323  0.50531816  0.73104773     0.09300
H813        H  0.11197399  0.53828911  0.79602277     0.06900
H814        H  0.15398817  0.61571543  0.72958557     0.06700
O815        O  0.02870286  0.59973773  0.79820705    -0.72300
O816        O  0.13820615  0.66855588  0.83048016    -0.73300
O817        O  0.06441363  0.66949697  0.83016446    -0.61900
O818        O  0.10292210  0.59903191  0.79853961    -0.70300
O819        O  0.12392104  0.63890905  0.76434795    -0.69900
O820        O  0.08493247  0.70919232  0.79588269    -0.61100
O821        O  0.15903821  0.70854695  0.79631940    -0.73600
O822        O  0.04936388  0.63926170  0.76384568    -0.72400
Cu823      Cu  0.08276414  0.63277868  0.81549387     1.04600
Cu824      Cu  0.10500696  0.67535719  0.77889878     1.04300
C825        C  0.02174593  0.60806782  0.77584621     0.93900
C826        C  0.16583996  0.69990169  0.81864174     0.93000
C827        C  0.06936018  0.70103054  0.81825294     0.85200
C828        C  0.11944736  0.60768770  0.77643384     0.91400
C829        C  0.15132398  0.56460698  0.65632996    -0.13700
C830        C  0.19008463  0.57267118  0.64854091     0.16600
C831        C  0.21956258  0.57847100  0.66713773     0.02900
C832        C  0.20909032  0.57551626  0.69310245    -0.12200
C833        C  0.17010898  0.56703291  0.70068755    -0.03300
C834        C  0.14117742  0.56150356  0.68209750     0.02200
C835        C  0.19894848  0.57594315  0.62086287     0.09000
N836        N  0.25965569  0.58656728  0.66010220     0.65400
H837        H  0.23115981  0.57923241  0.70746328     0.18300
N838        N  0.10137455  0.05305338  0.68920047     0.75800
H839        H  0.12887616  0.06085738  0.64222910     0.09800
C840        C  0.17594446  0.54275945  0.60447966     0.03500
C841        C  0.18291445  0.54798654  0.57817453    -0.05200
C842        C  0.21327680  0.58532497  0.56778780    -0.23600
C843        C  0.23712169  0.61837187  0.58435120     0.12700
C844        C  0.22900940  0.61340732  0.61061571    -0.12800
N845        N  0.14600711  0.00355395  0.61432365     0.64400
H846        H  0.16468501  0.02253142  0.56569780     0.12300
N847        N  0.27033117  0.65654769  0.57507772     0.61100
H848        H  0.24671275  0.63879728  0.62327180     0.08400
O849        O  0.07547671  0.01832983  0.69782487    -0.40400
O850        O  0.09447702  0.08199525  0.69072389    -0.39600
O851        O  0.28997527  0.60861170  0.67407265    -0.39600
O852        O  0.26450640  0.56922467  0.64112931    -0.37300
O853        O  0.29527471  0.65712494  0.55892927    -0.38200
O854        O  0.27779940  0.68955159  0.58529623    -0.34300
O855        O  0.11187390  0.98304695  0.60343591    -0.35800
O856        O  0.15488495  0.98774019  0.63252709    -0.40000
C857        C  0.37466933  0.93655735  0.27386426    -0.13700
C858        C  0.34004393  0.90022658  0.28190806     0.16600
C859        C  0.31550660  0.87060075  0.26372158     0.02900
C860        C  0.32671127  0.87787511  0.23791835    -0.12200
C861        C  0.36202740  0.91374304  0.22993474    -0.03300
C862        C  0.38632856  0.94352219  0.24817387     0.02200
C863        C  0.33038456  0.89409512  0.30946732     0.09000
N864        N  0.27989640  0.83279364  0.27113013     0.65400
H865        H  0.30806812  0.85505695  0.22394623     0.18300
N866        N  0.42353794  0.98015569  0.24115774     0.75800
H867        H  0.39344261  0.95922280  0.28788480     0.09800
C868        C  0.35723361  0.89158509  0.32700632     0.03500
C869        C  0.34786280  0.88784759  0.35305260    -0.05200
C870        C  0.31214533  0.88601838  0.36197992    -0.23600
C871        C  0.28496220  0.88796617  0.34439905     0.12700
C872        C  0.29472888  0.89247009  0.31835337    -0.12800
N873        N  0.39373246  0.89234224  0.31870385     0.64400
H874        H  0.36854064  0.88610835  0.36654257     0.12300
N875        N  0.24709748  0.88443368  0.35253285     0.61100
H876        H  0.27413849  0.89426638  0.30481672     0.08400
O877        O  0.44889572  0.97863295  0.22631526    -0.40400
O878        O  0.43334966  0.01333550  0.25206607    -0.39600
O879        O  0.24848993  0.81706239  0.25722980    -0.39600
O880        O  0.28096724  0.81309817  0.29020598    -0.37300
O881        O  0.23363512  0.90462733  0.34137572    -0.38200
O882        O  0.22504797  0.35832057  0.36896465    -0.34300
O883        O  0.42565930  0.90951268  0.33211768    -0.35800
O884        O  0.39318351  0.87276136  0.29924491    -0.40000
C885        C  0.46058669  0.56987826  0.65392892    -0.13700
C886        C  0.42375774  0.56472133  0.64469653     0.16600
C887        C  0.39213969  0.55765865  0.66196164     0.02900
C888        C  0.39845472  0.55568906  0.68818452    -0.12200
C889        C  0.43535660  0.56053124  0.69743726    -0.03300
C890        C  0.46672781  0.56776943  0.67997470     0.02200
C891        C  0.42058596  0.56915483  0.61697396     0.09000
N892        N  0.35381737  0.55252066  0.65335833     0.65400
H893        H  0.37432435  0.55011002  0.70152964     0.18300
N894        N  0.00494417  0.57279919  0.68819747     0.75800
H895        H  0.98486959  0.57556749  0.64065819     0.09800
C896        C  0.42124388  0.60362247  0.60648384     0.03500
C897        C  0.41917207  0.60674289  0.58001826    -0.05200
C898        C  0.41718514  0.57666910  0.56377551    -0.23600
C899        C  0.41659808  0.54213419  0.57428667     0.12700
C900        C  0.41816220  0.53879699  0.60082925    -0.12800
N901        N  0.92392611  0.63556996  0.62227935     0.64400
H902        H  0.91919242  0.63300051  0.57195936     0.12300
N903        N  0.41568025  0.01100248  0.55837556     0.61100
H904        H  0.41814645  0.51262106  0.60901495     0.08400
O905        O  0.03788127  0.60119712  0.67885794    -0.40400
O906        O  0.00579367  0.54680775  0.70277071    -0.39600
O907        O  0.33856661  0.53537748  0.63244067    -0.39600
O908        O  0.33343036  0.56225852  0.66763547    -0.37300
O909        O  0.43621510  0.02034711  0.53798791    -0.38200
O910        O  0.39740527  0.97438419  0.56590413    -0.34300
O911        O  0.94732398  0.64794220  0.64132543    -0.35800
O912        O  0.90550671  0.65396682  0.61590396    -0.40000
C913        C  0.43020971  0.85137167  0.59793682    -0.13700
C914        C  0.43101230  0.82373273  0.61533453     0.16600
C915        C  0.42695614  0.78706174  0.60632545     0.02900
C916        C  0.42266678  0.77889564  0.58020098    -0.12200
C917        C  0.42261807  0.80678317  0.56269953    -0.03300
C918        C  0.42624685  0.84337409  0.57168773     0.02200
C919        C  0.43483587  0.83277822  0.64296299     0.09000
N920        N  0.42677858  0.75769158  0.62351051     0.65400
H921        H  0.41927672  0.75046326  0.57348080     0.18300
N922        N  0.42671590  0.87288469  0.55443567     0.75800
H923        H  0.43309760  0.87949903  0.60482662     0.09800
C924        C  0.47065586  0.86574006  0.65336529     0.03500
C925        C  0.47289682  0.87217967  0.67974207    -0.05200
C926        C  0.44061540  0.84610621  0.69606870    -0.23600
C927        C  0.40468065  0.81323214  0.68558365     0.12700
C928        C  0.40212610  0.80734336  0.65914389    -0.12800
N929        N  0.50523058  0.89226612  0.63762369     0.64400
H930        H  0.50035632  0.89760310  0.68767522     0.12300
N931        N  0.37117385  0.78491024  0.70142290     0.61100
H932        H  0.37472183  0.78197566  0.65111126     0.08400
O933        O  0.40629064  0.88976016  0.55945311    -0.40400
O934        O  0.45018432  0.88470092  0.53529307    -0.39600
O935        O  0.39793443  0.72112532  0.62280827    -0.39600
O936        O  0.45522622  0.76809938  0.63943274    -0.37300
O937        O  0.33482312  0.76981061  0.69375388    -0.38200
O938        O  0.37782224  0.77158482  0.72179756    -0.34300
O939        O  0.02650891  0.92975262  0.64268908    -0.35800
O940        O  0.01714413  0.87779539  0.62030879    -0.40000
C941        C  0.13111788  0.67591233  0.32289091    -0.13700
C942        C  0.09253407  0.64673048  0.31382112     0.16600
C943        C  0.05904332  0.62786582  0.33082723     0.02900
C944        C  0.06503578  0.63886664  0.35659358    -0.12200
C945        C  0.10363914  0.66836516  0.36580568    -0.03300
C946        C  0.13705493  0.68753079  0.34853375     0.02200
C947        C  0.08738729  0.63949563  0.28608789     0.09000
N948        N  0.51865444  0.59879050  0.32214879     0.65400
H949        H  0.53932172  0.62390587  0.36963186     0.18300
N950        N  0.17646505  0.72029520  0.35624255     0.75800
H951        H  0.15645255  0.69112183  0.30959026     0.09800
C952        C  0.08356314  0.66671353  0.26955213     0.03500
C953        C  0.08077930  0.65965763  0.24323528    -0.05200
C954        C  0.08131522  0.62591923  0.23310772    -0.23600
C955        C  0.08496168  0.59858806  0.24975741     0.12700
C956        C  0.08879448  0.60626355  0.27600578    -0.12800
N957        N  0.08299033  0.70176119  0.27907306     0.64400
H958        H  0.07808138  0.68062711  0.23050729     0.12300
N959        N  0.08360238  0.56244779  0.24051022     0.61100
H960        H  0.09193043  0.58562603  0.28879874     0.08400
O961        O  0.20863085  0.72334860  0.34700286    -0.40400
O962        O  0.17920448  0.74898901  0.36964439    -0.39600
O963        O  0.51303306  0.57016968  0.30758056    -0.39600
O964        O  0.48801727  0.59947321  0.33087620    -0.37300
O965        O  0.10499342  0.54974909  0.25095784    -0.38200
O966        O  0.55772742  0.54060656  0.22392755    -0.34300
O967        O  0.09966147  0.73464287  0.26646300    -0.35800
O968        O  0.06310271  0.69916613  0.29896721    -0.40000
C969        C  0.12635299  0.90799691  0.26615685    -0.13700
C970        C  0.09513958  0.90278280  0.28284342     0.16600
C971        C  0.06014059  0.90209650  0.27309380     0.02900
C972        C  0.05721061  0.90654785  0.24684440    -0.12200
C973        C  0.08806372  0.91115281  0.23004506    -0.03300
C974        C  0.12313251  0.91189638  0.23979796     0.02200
C975        C  0.10001690  0.89915535  0.31049636     0.09000
N976        N  0.02726714  0.89654111  0.28946402     0.65400
H977        H  0.03047404  0.90634845  0.23939694     0.18300
N978        N  0.15514783  0.91576011  0.22328658     0.75800
H979        H  0.15317064  0.90850786  0.27373766     0.09800
C980        C  0.10003431  0.86498932  0.32102624     0.03500
C981        C  0.10338625  0.86256466  0.34746669    -0.05200
C982        C  0.10622369  0.89313921  0.36363508    -0.23600
C983        C  0.10701213  0.92769292  0.35300409     0.12700
C984        C  0.10423220  0.93038062  0.32652703    -0.12800
N985        N  0.09587218  0.83228723  0.30532564     0.64400
H986        H  0.10336487  0.83631715  0.35556908     0.12300
N987        N  0.10945005  0.95960897  0.36873109     0.61100
H988        H  0.10429004  0.95659986  0.31834117     0.08400
O989        O  0.14654831  0.89595516  0.20278975    -0.40400
O990        O  0.19201313  0.93604666  0.23025227    -0.39600
O991        O  0.50818146  0.91492790  0.28471289    -0.39600
O992        O  0.51465619  0.87047245  0.30723118    -0.37300
O993        O  0.12983385  0.99625882  0.36135877    -0.38200
O994        O  0.08824027  0.45104180  0.38870929    -0.34300
O995        O  0.11525493  0.81442565  0.31072569    -0.35800
O996        O  0.06999781  0.81854659  0.28756625    -0.40000
C997        C  0.04835950  0.77424899  0.94051852    -0.13700
C998        C  0.01481585  0.73819268  0.94987916     0.16600
C999        C  0.48976702  0.70671432  0.93281496     0.02900
C1000       C  0.49904059  0.71227998  0.90668657    -0.12200
C1001       C  0.03284887  0.74822168  0.89728374    -0.03300
C1002       C  0.05798432  0.77956945  0.91448124     0.02200
C1003       C  0.00607031  0.73470899  0.97752234     0.09000
N1004       N  0.45532050  0.66896434  0.94163206     0.65400
H1005       H  0.47988096  0.68824601  0.89353425     0.18300
N1006       N  0.09381054  0.81639416  0.90601709     0.75800
H1007       H  0.06755275  0.79823625  0.95370040     0.09800
C1008       C  0.03136379  0.72984718  0.99495674     0.03500
C1009       C  0.02247833  0.72666775  0.02100604    -0.05200
C1010       C  0.98834877  0.72794689  0.03010533    -0.23600
C1011       C  0.46266762  0.73264679  0.01253524     0.12700
C1012       C  0.47222724  0.73646556  0.98645221    -0.12800
N1013       N  0.06549964  0.72695120  0.98631581     0.64400
H1014       H  0.04225605  0.72295964  0.03424181     0.12300
N1015       N  0.42618309  0.73210010  0.02062336     0.61100
H1016       H  0.45262197  0.73988088  0.97291949     0.08400
O1017       O  0.10311735  0.85007965  0.91600936    -0.40400
O1018       O  0.11841178  0.81492218  0.89047884    -0.39600
O1019       O  0.42418878  0.64974369  0.92772438    -0.39600
O1020       O  0.45726644  0.65275039  0.96218434    -0.37300
O1021       O  0.41504996  0.75421226  0.00941517    -0.38200
O1022       O  0.40245604  0.70613591  0.03677585    -0.34300
O1023       O  0.10143378  0.75631609  0.98955385    -0.35800
O1024       O  0.05986215  0.69404997  0.97696693    -0.40000
C1025       C  0.26256461  0.02768654  0.98685732    -0.13700
C1026       C  0.26716265  0.99572462  0.97780529     0.16600
C1027       C  0.27606676  0.97268594  0.99502841     0.02900
C1028       C  0.27938228  0.98195091  0.02107306    -0.12200
C1029       C  0.27485642  0.01401948  0.03023245    -0.03300
C1030       C  0.26669220  0.03745339  0.01279105     0.02200
C1031       C  0.26101000  0.98622483  0.95034097     0.09000
N1032       N  0.28207885  0.94022911  0.98648283     0.65400
H1033       H  0.28584046  0.96412618  0.03438105     0.18300
N1034       N  0.26360028  0.57180964  0.02086687     0.75800
H1035       H  0.25606126  0.04544558  0.97350572     0.09800
C1036       C  0.22535563  0.95163288  0.94119850     0.03500
C1037       C  0.22174653  0.94336541  0.91503774    -0.05200
C1038       C  0.25262106  0.96905254  0.89779710    -0.23600
C1039       C  0.28822073  0.50389025  0.90698563     0.12700
C1040       C  0.29195184  0.51191243  0.93321716    -0.12800
N1041       N  0.19271026  0.92475058  0.95809684     0.64400
H1042       H  0.19458130  0.91664912  0.90802216     0.12300
N1043       N  0.32036099  0.53171061  0.89009721     0.61100
H1044       H  0.31908728  0.53848419  0.94039297     0.08400
O1045       O  0.23735363  0.57857549  0.01093059    -0.40400
O1046       O  0.28974026  0.59779523  0.03583893    -0.39600
O1047       O  0.29923334  0.94283883  0.96538764    -0.39600
O1048       O  0.27389571  0.91061465  0.00109735    -0.37300
O1049       O  0.31197103  0.54063070  0.86865593    -0.38200
O1050       O  0.35699634  0.55066901  0.89761060    -0.34300
O1051       O  0.18196283  0.93886567  0.97626093    -0.35800
O1052       O  0.17224195  0.88700554  0.95366121    -0.40000
C1053       C  0.26821575  0.76246140  0.99293338    -0.13700
C1054       C  0.26512777  0.73135964  0.97721714     0.16600
C1055       C  0.26741610  0.69861398  0.98805656     0.02900
C1056       C  0.27182779  0.69731440  0.01445506    -0.12200
C1057       C  0.27353999  0.72770544  0.03030225    -0.03300
C1058       C  0.27205615  0.76090214  0.01940427     0.02200
C1059       C  0.25959636  0.73384735  0.94951733     0.09000
N1060       N  0.26446590  0.66617639  0.97267277     0.65400
H1061       H  0.27340317  0.67202955  0.02278196     0.18300
N1062       N  0.27321669  0.79247438  0.03487345     0.75800
H1063       H  0.26662253  0.78767508  0.98451670     0.09800
C1064       C  0.22415094  0.73223151  0.93974301     0.03500
C1065       C  0.22118669  0.73666683  0.91347890    -0.05200
C1066       C  0.25230907  0.74190168  0.89667898    -0.23600
C1067       C  0.28750083  0.74288968  0.90643568     0.12700
C1068       C  0.29086204  0.73927682  0.93280766    -0.12800
N1069       N  0.19087462  0.72571140  0.95608960     0.64400
H1070       H  0.19421833  0.73599065  0.90601565     0.12300
N1071       N  0.31948596  0.74666147  0.88991787     0.61100
H1072       H  0.31792475  0.74029475  0.94040394     0.08400
O1073       O  0.25236816  0.78359215  0.05511223    -0.40400
O1074       O  0.29176451  0.82893098  0.02703824    -0.39600
O1075       O  0.28738457  0.65182096  0.97705860    -0.39600
O1076       O  0.23668615  0.64940749  0.95618148    -0.37300
O1077       O  0.31083029  0.72712700  0.86931203    -0.38200
O1078       O  0.35629915  0.76629283  0.89705010    -0.34300
O1079       O  0.17022175  0.74234375  0.95096034    -0.35800
O1080       O  0.17943506  0.70029924  0.97419717    -0.40000
C1081       C  0.77776529  0.22425555  0.05802458     0.03800
C1082       C  0.74861656  0.18930517  0.07116335    -0.12400
C1083       C  0.75386609  0.18374444  0.09701318     0.01300
C1084       C  0.78849855  0.21396001  0.10970748    -0.10900
C1085       C  0.81825422  0.24892410  0.09673523     0.03700
C1086       C  0.81238759  0.25408729  0.07088889    -0.10300
H1087       H  0.72250179  0.16591535  0.06091719     0.09300
H1088       H  0.79319180  0.20938177  0.12949112     0.06900
H1089       H  0.83552834  0.28030528  0.06039270     0.06700
C1090       C  0.74770259  0.24802454  0.86926166     0.03800
C1091       C  0.77694940  0.28366390  0.85665274    -0.12400
C1092       C  0.77067518  0.29139433  0.83137618     0.01300
C1093       C  0.73504002  0.26268400  0.81872647    -0.10900
C1094       C  0.70529020  0.22721661  0.83118075     0.03700
C1095       C  0.71206114  0.21994017  0.85640875    -0.10300
H1096       H  0.80367306  0.30604387  0.86694183     0.09300
H1097       H  0.72960129  0.26879471  0.79942176     0.06900
H1098       H  0.68912950  0.19297098  0.86641487     0.06700
O1099       O  0.75341642  0.17229600  0.46438927    -0.72300
O1100       O  0.78819796  0.27997984  0.43117652    -0.73300
O1101       O  0.82670629  0.24826535  0.46295129    -0.61900
O1102       O  0.71510765  0.20405769  0.43280229    -0.70300
O1103       O  0.69547619  0.22339414  0.46709228    -0.69900
O1104       O  0.80732226  0.26770831  0.49729901    -0.61100
O1105       O  0.76880005  0.29950593  0.46548963    -0.73600
O1106       O  0.73402501  0.19160514  0.49880575    -0.72400
Cu1107     Cu  0.77155785  0.22549883  0.44666557     1.04600
Cu1108     Cu  0.75072082  0.24623247  0.48336708     1.04300
C1109       C  0.73908666  0.16519034  0.48705176     0.93900
C1110       C  0.78297158  0.30639555  0.44277174     0.93000
C1111       C  0.83441350  0.26394881  0.48516861     0.85200
C1112       C  0.68791605  0.20770889  0.44487619     0.91400
O1113       O  0.53078858  0.39549974  0.79822336    -0.72300
O1114       O  0.63943823  0.43266884  0.83118439    -0.73300
O1115       O  0.60617014  0.46972995  0.79962323    -0.61900
O1116       O  0.56420466  0.35860440  0.82990550    -0.70300
O1117       O  0.58429655  0.33991052  0.79553280    -0.69900
O1118       O  0.62677294  0.45137562  0.76533074    -0.61100
O1119       O  0.65962125  0.41399184  0.79684475    -0.73600
O1120       O  0.55124836  0.37727358  0.76381320    -0.72400
Cu1121     Cu  0.58439692  0.41474340  0.81590756     1.04600
Cu1122     Cu  0.60616886  0.39499008  0.77918644     1.04300
C1123       C  0.52410733  0.38138034  0.77559481     0.93900
C1124       C  0.66645501  0.42835339  0.81940001     0.93000
C1125       C  0.62251673  0.47797908  0.77748587     0.85200
C1126       C  0.56861544  0.33201476  0.81786649     0.91400
C1127       C  0.77893722  0.52241521  0.05799317     0.03800
C1128       C  0.81364303  0.52785984  0.07098616    -0.12400
C1129       C  0.81953669  0.53879197  0.09679748     0.01300
C1130       C  0.78994288  0.04386232  0.10960989    -0.10900
C1131       C  0.75496559  0.53842071  0.09694144     0.03700
C1132       C  0.74924016  0.52671000  0.07126519    -0.10300
H1133       H  0.83688385  0.52526122  0.06061457     0.09300
H1134       H  0.79483583  0.05344714  0.12929866     0.06900
H1135       H  0.72244840  0.52245483  0.06122319     0.06700
C1136       C  0.74712954  0.45775197  0.87052477     0.03800
C1137       C  0.77548202  0.45064426  0.85787531    -0.12400
C1138       C  0.76909703  0.43749299  0.83246118     0.01300
C1139       C  0.73407235  0.43189131  0.81976182    -0.10900
C1140       C  0.70516655  0.43841572  0.83224164     0.03700
C1141       C  0.71206935  0.45152069  0.85763797    -0.10300
H1142       H  0.80185396  0.45429596  0.86814432     0.09300
H1143       H  0.72863847  0.42116658  0.80030783     0.06900
H1144       H  0.68985767  0.45623821  0.86765523     0.06700
C1145       C  0.48023700  0.22415231  0.05791839     0.03800
C1146       C  0.47493065  0.25325689  0.07087767    -0.12400
C1147       C  0.46379390  0.24788419  0.09675036     0.01300
C1148       C  0.95921342  0.21345979  0.10976539    -0.10900
C1149       C  0.46499692  0.18430731  0.09714986     0.03700
C1150       C  0.47593355  0.19019671  0.07124787    -0.10300
H1151       H  0.47809576  0.27933024  0.06046776     0.09300
H1152       H  0.94979185  0.20865036  0.12955412     0.06900
H1153       H  0.47926941  0.16741901  0.06102697     0.06700
C1154       C  0.54109085  0.25238110  0.86948500     0.03800
C1155       C  0.54558861  0.28640844  0.85616936    -0.12400
C1156       C  0.55770926  0.29288217  0.83048184     0.01300
C1157       C  0.56373622  0.26384117  0.81789961    -0.10900
C1158       C  0.55859037  0.22911324  0.83083296     0.03700
C1159       C  0.54685963  0.22349462  0.85661695    -0.10300
H1160       H  0.54134823  0.30872894  0.86626427     0.09300
H1161       H  0.57390763  0.26903451  0.79825365     0.06900
H1162       H  0.54405599  0.19764151  0.86710860     0.06700
O1163       O  0.91990217  0.50898084  0.12945981    -0.72300
O1164       O  0.96000850  0.11923247  0.09825456    -0.73300
O1165       O  0.49473021  0.08358325  0.13009994    -0.61900
O1166       O  0.88535667  0.04478081  0.09776343    -0.70300
O1167       O  0.86525631  0.06353087  0.13210867    -0.71700
O1168       O  0.97448214  0.10216286  0.16445231    -0.61100
O1169       O  0.93998793  0.13812442  0.13257059    -0.73600
O1170       O  0.89967094  0.02765695  0.16377152    -0.72400
Cu1171     Cu  0.94074358  0.06352359  0.11272021     1.04600
Cu1172     Cu  0.91917702  0.08354527  0.14941273     1.04300
C1173       C  0.90423752  0.50111573  0.15178775     0.93900
C1174       C  0.95516010  0.14570095  0.11009826     0.93000
C1175       C  0.50151848  0.09786619  0.15268679     0.85200
C1176       C  0.85831141  0.04898387  0.10959985     0.91400
C1177       C  0.60998884  0.38872605  0.39135913     0.03800
C1178       C  0.64412287  0.41848408  0.40462128    -0.12400
C1179       C  0.64955189  0.41291358  0.43046257     0.01300
C1180       C  0.61995137  0.37745704  0.44304802    -0.10900
C1181       C  0.58587192  0.34715918  0.42997192     0.03700
C1182       C  0.58095064  0.35320359  0.40412835    -0.10300
H1183       H  0.66731374  0.44504852  0.39441101     0.09300
H1184       H  0.62440514  0.37258144  0.46282166     0.06900
H1185       H  0.55516339  0.32983633  0.39364465     0.06700
C1186       C  0.58343780  0.41703184  0.20264085     0.03800
C1187       C  0.54787898  0.38873612  0.18979421    -0.12400
C1188       C  0.54091452  0.39602770  0.16460698     0.01300
C1189       C  0.57037237  0.43173093  0.15221968    -0.10900
C1190       C  0.60584502  0.46063353  0.16490724     0.03700
C1191       C  0.61236515  0.45286050  0.19010531    -0.10300
H1192       H  0.52512649  0.36165220  0.19979318     0.09300
H1193       H  0.56479417  0.43789071  0.13295931     0.06900
H1194       H  0.63898516  0.47536750  0.20041677     0.06700
C1195       C  0.60818593  0.17852633  0.39338480     0.03800
C1196       C  0.64142048  0.18196510  0.40721043    -0.12400
C1197       C  0.64855929  0.19622594  0.43236102     0.01300
C1198       C  0.62020387  0.20414806  0.44429305    -0.10900
C1199       C  0.58588850  0.19945660  0.43109762     0.03700
C1200       C  0.58020907  0.18670802  0.40561064    -0.10300
H1201       H  0.66284092  0.17536230  0.39788106     0.09300
H1202       H  0.62570146  0.21550266  0.46360365     0.06900
H1203       H  0.55487562  0.18466329  0.39490763     0.06700
C1204       C  0.57857806  0.12014214  0.20513085     0.03800
C1205       C  0.60834515  0.11586882  0.19197207    -0.12400
C1206       C  0.60383276  0.10633052  0.16594414     0.01300
C1207       C  0.56971300  0.10249626  0.15296138    -0.10900
C1208       C  0.53990368  0.10729085  0.16576461     0.03700
C1209       C  0.54489124  0.11660704  0.19185122    -0.10300
H1210       H  0.63411660  0.11830474  0.20236971     0.09300
H1211       H  0.56558747  0.09429177  0.13302572     0.06900
H1212       H  0.52156259  0.11907221  0.20222046     0.06700
O1213       O  0.69424066  0.11744169  0.09823562    -0.72300
O1214       O  0.62516438  0.50777082  0.13040536    -0.73300
O1215       O  0.62418441  0.08127777  0.13064962    -0.61900
O1216       O  0.69507416  0.04401074  0.09806904    -0.70300
O1217       O  0.73496521  0.06405020  0.13207663    -0.69900
O1218       O  0.66391741  0.10105003  0.16472848    -0.61100
O1219       O  0.66495870  0.02754728  0.16445903    -0.73600
O1220       O  0.73410150  0.13765859  0.13226518    -0.72400
Cu1221     Cu  0.65825333  0.06193052  0.11318795     1.04600
Cu1222     Cu  0.70089727  0.08332227  0.14956254     1.04300
C1223       C  0.72575956  0.14468262  0.10992059     0.93900
C1224       C  0.63360608  0.50034775  0.15260004     0.93000
C1225       C  0.63227912  0.09626931  0.15304737     0.85200
C1226       C  0.72671197  0.04880229  0.10974693     0.91400
O1227       O  0.95628151  0.17105573  0.46323921    -0.72300
O1228       O  0.52646767  0.28058871  0.43084823    -0.73300
O1229       O  0.52680227  0.20667364  0.43125846    -0.61900
O1230       O  0.95611955  0.24526702  0.46305832    -0.70300
O1231       O  0.49579341  0.26530883  0.49715231    -0.69900
O1232       O  0.56613885  0.22665899  0.46550619    -0.61100
O1233       O  0.56602192  0.30071325  0.46501228    -0.73600
O1234       O  0.49565407  0.19105820  0.49748000    -0.72400
Cu1235     Cu  0.98999974  0.22517483  0.44593165     1.04600
Cu1236     Cu  0.53227589  0.24664079  0.48246113     1.04300
C1237       C  0.96442159  0.16377752  0.48555966     0.93900
C1238       C  0.55785517  0.30782383  0.44264126     0.93000
C1239       C  0.55809388  0.21114242  0.44325361     0.85200
C1240       C  0.96449949  0.26099291  0.48527736     0.91400
C1241       C  0.91688031  0.29591137  0.53534785     0.03800
C1242       C  0.88198454  0.29025451  0.52252047    -0.12400
C1243       C  0.87403267  0.27559029  0.49741550     0.01300
C1244       C  0.90219637  0.26777267  0.48503946    -0.10900
C1245       C  0.93720261  0.27314529  0.49765192     0.03700
C1246       C  0.94429820  0.28734096  0.52283907    -0.10300
H1247       H  0.86015097  0.29546559  0.53259665     0.09300
H1248       H  0.89599429  0.25585584  0.46586303     0.06900
H1249       H  0.47066026  0.29087134  0.53306769     0.06700
C1250       C  0.94492080  0.35492071  0.72376166     0.03800
C1251       C  0.97965742  0.36048249  0.73679899    -0.12400
C1252       C  0.98548691  0.37143863  0.76262079     0.01300
C1253       C  0.95568839  0.37619664  0.77542412    -0.10900
C1254       C  0.92089003  0.37105993  0.76265489     0.03700
C1255       C  0.91571726  0.36029782  0.73679898    -0.10300
H1256       H  0.00254388  0.35710019  0.72657496     0.09300
H1257       H  0.96026980  0.38526217  0.79521018     0.06900
H1258       H  0.88967458  0.35739109  0.72648780     0.06700
O1259       O  0.79039074  0.33836587  0.79672727    -0.72300
O1260       O  0.85859537  0.44842755  0.76478663    -0.73300
O1261       O  0.86028699  0.37545570  0.76413965    -0.61900
O1262       O  0.78890251  0.41155705  0.79738565    -0.70300
O1263       O  0.82887015  0.43161411  0.83135423    -0.69900
O1264       O  0.90012945  0.39529127  0.79816712    -0.61100
O1265       O  0.89869047  0.46854153  0.79870493    -0.73600
O1266       O  0.83011770  0.35817472  0.83080902    -0.72400
Cu1267     Cu  0.82311637  0.39270662  0.77961547     1.04600
Cu1268     Cu  0.86586935  0.41410099  0.81593393     1.04300
C1269       C  0.79873742  0.33098206  0.81896366     0.93900
C1270       C  0.89004247  0.47573605  0.77649008     0.93000
C1271       C  0.89213678  0.38055979  0.77569845     0.85200
C1272       C  0.79716440  0.42675350  0.81973318     0.91400
C1273       C  0.91346498  0.08135469  0.53607946     0.03800
C1274       C  0.94218628  0.11726073  0.52351897    -0.12400
C1275       C  0.93661382  0.12409122  0.49794917     0.01300
C1276       C  0.90215742  0.09416175  0.48492836    -0.10900
C1277       C  0.87286452  0.05831584  0.49735139     0.03700
C1278       C  0.87902664  0.05194940  0.52290217    -0.10300
H1279       H  0.46815605  0.14036772  0.53401167     0.09300
H1280       H  0.89715314  0.09963710  0.46538340     0.06900
H1281       H  0.85609126  0.52516724  0.53307225     0.06700
C1282       C  0.94010993  0.05685875  0.72517833     0.03800
C1283       C  0.91129284  0.02163813  0.73828557    -0.12400
C1284       C  0.91764474  0.01515310  0.76378280     0.01300
C1285       C  0.95292828  0.04478107  0.77624245    -0.10900
C1286       C  0.98212540  0.08023960  0.76345635     0.03700
C1287       C  0.97494440  0.08655949  0.73807956    -0.10300
H1288       H  0.88502098  0.49837489  0.72814653     0.09300
H1289       H  0.95853907  0.03937371  0.79566945     0.06900
H1290       H  0.49733188  0.11363608  0.72791341     0.06700
O1291       O  0.95841596  0.30770936  0.09764781    -0.72300
O1292       O  0.92072110  0.37847158  0.12968857    -0.73300
O1293       O  0.49455119  0.37732872  0.12978335    -0.61900
O1294       O  0.88473686  0.30869044  0.09755551    -0.70300
O1295       O  0.86410694  0.26890527  0.13181390    -0.69900
O1296       O  0.97378134  0.33733474  0.16394266    -0.61100
O1297       O  0.90006379  0.33858750  0.16388504    -0.73600
O1298       O  0.93775736  0.26777019  0.13182720    -0.72400
Cu1299     Cu  0.94036009  0.34449263  0.11250571     1.04600
Cu1300     Cu  0.91818828  0.30177100  0.14904662     1.04300
C1301       C  0.95330394  0.27604010  0.10945522     0.93900
C1302       C  0.90499975  0.37015050  0.15201353     0.93000
C1303       C  0.50141378  0.36865365  0.15208055     0.85200
C1304       C  0.85729501  0.27721642  0.10941311     0.91400
C1305       C  0.80449211  0.38266278  0.38978002     0.03800
C1306       C  0.80085143  0.34912630  0.40325325    -0.12400
C1307       C  0.79149861  0.34423350  0.42937472     0.01300
C1308       C  0.78678674  0.37400457  0.44203234    -0.10900
C1309       C  0.79083686  0.40808366  0.42884948     0.03700
C1310       C  0.79991115  0.41224656  0.40268046    -0.10300
H1311       H  0.80378042  0.32608742  0.39305286     0.09300
H1312       H  0.77893615  0.37011441  0.46208055     0.06900
H1313       H  0.80252493  0.43796493  0.39211311     0.06700
C1314       C  0.87302818  0.41945977  0.20255396     0.03800
C1315       C  0.87983554  0.39112983  0.18984466    -0.12400
C1316       C  0.89378988  0.39797093  0.16449902     0.01300
C1317       C  0.90005866  0.43331046  0.15183037    -0.10900
C1318       C  0.89309559  0.46184299  0.16427441     0.03700
C1319       C  0.87900602  0.45430741  0.18956281    -0.10300
H1320       H  0.87586575  0.36464547  0.20013811     0.09300
H1321       H  0.91168115  0.43929278  0.13249563     0.06900
H1322       H  0.87401831  0.47621537  0.19957821     0.06700
O1323       O  0.78807474  0.46938844  0.43032411    -0.72300
O1324       O  0.75418629  0.04225517  0.46387005    -0.73300
O1325       O  0.82664895  0.03913681  0.46248543    -0.61900
O1326       O  0.71585816  0.47260363  0.43151889    -0.70300
O1327       O  0.69526127  0.43249438  0.46563732    -0.69900
O1328       O  0.80614036  0.49912359  0.49666856    -0.61100
O1329       O  0.73380501  0.50211810  0.49798591    -0.73600
O1330       O  0.76766119  0.42950442  0.46453526    -0.72400
Cu1331     Cu  0.77189545  0.00726347  0.44586621     1.04600
Cu1332     Cu  0.74996740  0.46440734  0.48237189     1.04300
C1333       C  0.78226211  0.43729750  0.44193367     0.93900
C1334       C  0.73968251  0.03433253  0.48651738     0.93000
C1335       C  0.83365230  0.03045557  0.48472885     0.85200
C1336       C  0.68840630  0.44110036  0.44332301     0.91400
C1337       C  0.71915880  0.08886302  0.53968120     0.03800
C1338       C  0.72344257  0.05941605  0.52628912    -0.12400
C1339       C  0.73132754  0.06345531  0.49996695     0.01300
C1340       C  0.73481921  0.09746404  0.48708511    -0.10900
C1341       C  0.73036705  0.12709894  0.50014302     0.03700
C1342       C  0.72149277  0.12197370  0.52632647    -0.10300
H1343       H  0.72220464  0.53415265  0.53666076     0.09300
H1344       H  0.74212189  0.10143966  0.46695708     0.06900
H1345       H  0.71793963  0.14456334  0.53661236     0.06700
C1346       C  0.65877353  0.06189931  0.72791619     0.03800
C1347       C  0.65198151  0.02676101  0.74081564    -0.12400
C1348       C  0.63487862  0.01782996  0.76538170     0.01300
C1349       C  0.62583064  0.04536042  0.77723802    -0.10900
C1350       C  0.63258528  0.08087639  0.76456522     0.03700
C1351       C  0.64939937  0.08902070  0.73988685    -0.10300
H1352       H  0.65799388  0.00534092  0.73105698     0.09300
H1353       H  0.61197929  0.03830462  0.79600085     0.06900
H1354       H  0.65390626  0.11565709  0.72952836     0.06700
O1355       O  0.52868106  0.09972718  0.79817559    -0.72300
O1356       O  0.63817999  0.16854286  0.83045484    -0.73300
O1357       O  0.56438310  0.16947345  0.83014323    -0.61900
O1358       O  0.60290200  0.09902584  0.79850432    -0.70300
O1359       O  0.62389740  0.13890387  0.76431334    -0.69900
O1360       O  0.58489789  0.20917605  0.79586485    -0.61100
O1361       O  0.65901016  0.20853927  0.79629666    -0.73600
O1362       O  0.54933535  0.13925444  0.76381581    -0.72400
Cu1363     Cu  0.58273979  0.13276507  0.81546493     1.04600
Cu1364     Cu  0.60497866  0.17534882  0.77887255     1.04300
C1365       C  0.52172019  0.10805815  0.77581587     0.93900
C1366       C  0.66581173  0.19989364  0.81861918     0.93000
C1367       C  0.56932643  0.20100859  0.81823570     0.85200
C1368       C  0.61942420  0.10768089  0.77639749     0.91400
C1369       C  0.65141903  0.06476928  0.65630864    -0.13700
C1370       C  0.69013817  0.07271520  0.64852233     0.16600
C1371       C  0.71956724  0.07838101  0.66711907     0.02900
C1372       C  0.70907877  0.07538890  0.69308316    -0.12200
C1373       C  0.67012646  0.06699921  0.70066690    -0.03300
C1374       C  0.64124661  0.06160993  0.68207469     0.02200
C1375       C  0.69900699  0.07599325  0.62084662     0.09000
N1376       N  0.75963182  0.08639833  0.66008289     0.65400
H1377       H  0.73111590  0.07901633  0.70744352     0.18300
N1378       N  0.60126015  0.55280278  0.68923027     0.75800
H1379       H  0.62873805  0.56058284  0.64225232     0.09800
C1380       C  0.67598905  0.04281502  0.60446637     0.03500
C1381       C  0.68295204  0.04802857  0.57816179    -0.05200
C1382       C  0.71332364  0.08535958  0.56777193    -0.23600
C1383       C  0.73718037  0.11840829  0.58433294     0.12700
C1384       C  0.72907737  0.11345001  0.61059903    -0.12800
N1385       N  0.64597095  0.50348298  0.61432991     0.64400
H1386       H  0.66466162  0.52249230  0.56570552     0.12300
N1387       N  0.77038916  0.15658041  0.57505508     0.61100
H1388       H  0.74679141  0.13883738  0.62325473     0.08400
O1389       O  0.57521185  0.51779712  0.69738558    -0.40400
O1390       O  0.59445999  0.58175027  0.69130209    -0.39600
O1391       O  0.78996354  0.10838638  0.67405875    -0.39600
O1392       O  0.76444441  0.06906041  0.64109317    -0.37300
O1393       O  0.79532650  0.15715202  0.55890398    -0.38200
O1394       O  0.77786108  0.18958757  0.58527049    -0.34300
O1395       O  0.61194622  0.48284994  0.60334069    -0.35800
O1396       O  0.65477216  0.48777474  0.63263212    -0.40000
C1397       C  0.87483637  0.43660020  0.27388302    -0.13700
C1398       C  0.84016932  0.40030949  0.28193249     0.16600
C1399       C  0.81557738  0.37070678  0.26375006     0.02900
C1400       C  0.82676644  0.37795999  0.23794432    -0.12200
C1401       C  0.86211780  0.41378806  0.22995414    -0.03300
C1402       C  0.88647567  0.44354702  0.24818864     0.02200
C1403       C  0.83051483  0.39419617  0.30949242     0.09000
N1404       N  0.77992193  0.33294367  0.27116592     0.65400
H1405       H  0.80807993  0.35515832  0.22397542     0.18300
N1406       N  0.92371464  0.48014307  0.24116213     0.75800
H1407       H  0.89365051  0.45924872  0.28790069     0.09800
C1408       C  0.85732087  0.39160360  0.32702649     0.03500
C1409       C  0.84795602  0.38787500  0.35307336    -0.05200
C1410       C  0.81228058  0.38613097  0.36200598    -0.23600
C1411       C  0.78514033  0.38816533  0.34442860     0.12700
C1412       C  0.79490592  0.39266313  0.31838297    -0.12800
N1413       N  0.89376621  0.39226137  0.31871701     0.64400
H1414       H  0.86860253  0.38607090  0.36655857     0.12300
N1415       N  0.74731560  0.38472247  0.35256437     0.61100
H1416       H  0.77434802  0.39452256  0.30484938     0.08400
O1417       O  0.94901447  0.47857169  0.22629142    -0.40400
O1418       O  0.93360652  0.51333375  0.25208270    -0.39600
O1419       O  0.74848890  0.31729570  0.25728944    -0.39600
O1420       O  0.78096633  0.31320319  0.29022479    -0.37300
O1421       O  0.73392465  0.40498228  0.34141186    -0.38200
O1422       O  0.72487310  0.85801910  0.36893896    -0.34300
O1423       O  0.92571313  0.40940286  0.33211386    -0.35800
O1424       O  0.89314455  0.37262263  0.29927009    -0.40000
C1425       C  0.96054013  0.06990586  0.65390131    -0.13700
C1426       C  0.92367187  0.06464768  0.64466753     0.16600
C1427       C  0.89202238  0.05749064  0.66193411     0.02900
C1428       C  0.89835358  0.05553834  0.68815758    -0.12200
C1429       C  0.93529794  0.06048526  0.69741080    -0.03300
C1430       C  0.96669194  0.06781033  0.67994616     0.02200
C1431       C  0.92049391  0.06907849  0.61694346     0.09000
N1432       N  0.85365135  0.05223686  0.65333358     0.65400
H1433       H  0.87420271  0.04989162  0.70150336     0.18300
N1434       N  0.50495667  0.07296816  0.68816741     0.75800
H1435       H  0.48485011  0.07567048  0.64063320     0.09800
C1436       C  0.92097310  0.10346257  0.60646290     0.03500
C1437       C  0.91893654  0.10660968  0.57999725    -0.05200
C1438       C  0.91713982  0.07663413  0.56374523    -0.23600
C1439       C  0.91670953  0.04217166  0.57424424     0.12700
C1440       C  0.91825550  0.03881449  0.60078687    -0.12800
N1441       N  0.42341703  0.13528916  0.62227037     0.64400
H1442       H  0.41882934  0.13280718  0.57194668     0.12300
N1443       N  0.91539789  0.51087046  0.55843079     0.61100
H1444       H  0.91836764  0.01269847  0.60896319     0.08400
O1445       O  0.53785433  0.10153360  0.67890072    -0.40400
O1446       O  0.50590849  0.04698184  0.70269326    -0.39600
O1447       O  0.83846260  0.03513808  0.63239531    -0.39600
O1448       O  0.83316342  0.06182040  0.66763153    -0.37300
O1449       O  0.93590136  0.52011086  0.53803383    -0.38200
O1450       O  0.89701178  0.47426290  0.56598334    -0.34300
O1451       O  0.44683145  0.14779805  0.64130617    -0.35800
O1452       O  0.40471197  0.15341628  0.61593316    -0.40000
C1453       C  0.93019681  0.35143819  0.59791061    -0.13700
C1454       C  0.93110565  0.32385798  0.61530921     0.16600
C1455       C  0.92718373  0.28724383  0.60630285     0.02900
C1456       C  0.92288399  0.27905887  0.58018070    -0.12200
C1457       C  0.92270735  0.30687839  0.56267609    -0.03300
C1458       C  0.92623477  0.34343236  0.57166051     0.02200
C1459       C  0.93489414  0.33289782  0.64293793     0.09000
N1460       N  0.92715897  0.25795172  0.62348909     0.65400
H1461       H  0.91958421  0.25066188  0.57346463     0.18300
N1462       N  0.92659915  0.37289715  0.55440847     0.75800
H1463       H  0.93299783  0.37952720  0.60480265     0.09800
C1464       C  0.97067253  0.36590147  0.65334545     0.03500
C1465       C  0.97289957  0.37232525  0.67972349    -0.05200
C1466       C  0.94063865  0.34619762  0.69604558    -0.23600
C1467       C  0.90473754  0.31328877  0.68555502     0.12700
C1468       C  0.90220060  0.30740953  0.65911413    -0.12800
N1469       N  0.00522216  0.39248537  0.63760596     0.64400
H1470       H  0.00033256  0.39777630  0.68766072     0.12300
N1471       N  0.87124972  0.28492479  0.70139014     0.61100
H1472       H  0.87482706  0.28200949  0.65107733     0.08400
O1473       O  0.90635930  0.38993009  0.55953409    -0.40400
O1474       O  0.94982486  0.38453588  0.53515199    -0.39600
O1475       O  0.89845953  0.22132256  0.62276557    -0.39600
O1476       O  0.95561678  0.26848316  0.63941931    -0.37300
O1477       O  0.83489357  0.26978435  0.69372265    -0.38200
O1478       O  0.87792550  0.27161261  0.72176098    -0.34300
O1479       O  0.52637538  0.42999244  0.64264222    -0.35800
O1480       O  0.51723743  0.37806193  0.62032088    -0.40000
C1481       C  0.63108968  0.17584414  0.32288929    -0.13700
C1482       C  0.59250943  0.14663158  0.31383169     0.16600
C1483       C  0.55903330  0.12775085  0.33084768     0.02900
C1484       C  0.56503533  0.13877142  0.35661084    -0.12200
C1485       C  0.60363433  0.16830311  0.36580987    -0.03300
C1486       C  0.63703587  0.18748005  0.34852882     0.02200
C1487       C  0.58734625  0.13938984  0.28609955     0.09000
N1488       N  0.01864835  0.09863875  0.32218217     0.65400
H1489       H  0.03933289  0.12380146  0.36965705     0.18300
N1490       N  0.67643801  0.22027312  0.35622481     0.75800
H1491       H  0.65641220  0.19106489  0.30958108     0.09800
C1492       C  0.58347255  0.16658454  0.26957084     0.03500
C1493       C  0.58069362  0.15953999  0.24325319    -0.05200
C1494       C  0.58127760  0.12583123  0.23311701    -0.23600
C1495       C  0.58496523  0.09851713  0.24976034     0.12700
C1496       C  0.58879695  0.10618529  0.27601000    -0.12800
N1497       N  0.58284518  0.20159907  0.27910040     0.64400
H1498       H  0.57796263  0.18049624  0.23053126     0.12300
N1499       N  0.58364853  0.06240068  0.24050599     0.61100
H1500       H  0.59196849  0.08556422  0.28879799     0.08400
O1501       O  0.70861124  0.22334992  0.34698023    -0.40400
O1502       O  0.67915845  0.24896572  0.36961921    -0.39600
O1503       O  0.01304924  0.07002538  0.30761411    -0.39600
O1504       O  0.98799684  0.09928444  0.33091933    -0.37300
O1505       O  0.60506500  0.04972911  0.25095027    -0.38200
O1506       O  0.05778399  0.04054814  0.22392185    -0.34300
O1507       O  0.59948996  0.23449020  0.26650028    -0.35800
O1508       O  0.56292983  0.19896037  0.29898982    -0.40000
C1509       C  0.62643812  0.40793997  0.26611793    -0.13700
C1510       C  0.59523591  0.40271366  0.28281862     0.16600
C1511       C  0.56021706  0.40200471  0.27308553     0.02900
C1512       C  0.55726039  0.40645728  0.24683923    -0.12200
C1513       C  0.58810681  0.41108525  0.23002605    -0.03300
C1514       C  0.62319157  0.41184134  0.23976158     0.02200
C1515       C  0.60014758  0.39911083  0.31047009     0.09000
N1516       N  0.52735213  0.39642986  0.28947073     0.65400
H1517       H  0.53051045  0.40624612  0.23940573     0.18300
N1518       N  0.65519936  0.41572484  0.22323511     0.75800
H1519       H  0.65327048  0.40846644  0.27368581     0.09800
C1520       C  0.60019049  0.36496110  0.32100311     0.03500
C1521       C  0.60354049  0.36253981  0.34744388    -0.05200
C1522       C  0.60635554  0.39310756  0.36360994    -0.23600
C1523       C  0.60713697  0.42765606  0.35297468     0.12700
C1524       C  0.60435430  0.43033603  0.32649723    -0.12800
N1525       N  0.59605023  0.33226880  0.30530399     0.64400
H1526       H  0.60353000  0.33629865  0.35554758     0.12300
N1527       N  0.60956853  0.45957400  0.36869709     0.61100
H1528       H  0.60439771  0.45654622  0.31830866     0.08400
O1529       O  0.64659040  0.39593019  0.20273381    -0.40400
O1530       O  0.69206989  0.43602253  0.23018919    -0.39600
O1531       O  0.00825081  0.41480651  0.28473816    -0.39600
O1532       O  0.01476608  0.37035585  0.30723444    -0.37300
O1533       O  0.62994337  0.49622154  0.36131919    -0.38200
O1534       O  0.58811982  0.95107369  0.38874258    -0.34300
O1535       O  0.61553306  0.31449670  0.31066777    -0.35800
O1536       O  0.57010897  0.31845149  0.28758343    -0.40000
C1537       C  0.54833238  0.27423265  0.94051442    -0.13700
C1538       C  0.51481715  0.23815912  0.94988113     0.16600
C1539       C  0.98979101  0.20666213  0.93282167     0.02900
C1540       C  0.99905350  0.21222986  0.90669149    -0.12200
C1541       C  0.53283131  0.24819116  0.89728154    -0.03300
C1542       C  0.55794796  0.27955587  0.91447555     0.02200
C1543       C  0.50607581  0.23467702  0.97752577     0.09000
N1544       N  0.95538216  0.16888959  0.94164595     0.65400
H1545       H  0.97990934  0.18818162  0.89354318     0.18300
N1546       N  0.59374847  0.31640077  0.90600710     0.75800
H1547       H  0.56751109  0.29823265  0.95369311     0.09800
C1548       C  0.53143258  0.22992322  0.99496628     0.03500
C1549       C  0.52256300  0.22677497  0.02101789    -0.05200
C1550       C  0.48838418  0.22796667  0.03011167    -0.23600
C1551       C  0.96265051  0.23257364  0.01253741     0.12700
C1552       C  0.97219421  0.23636701  0.98645273    -0.12800
N1553       N  0.56561943  0.22710854  0.98633102     0.64400
H1554       H  0.54238088  0.22314092  0.03425945     0.12300
N1555       N  0.92613557  0.23196676  0.02062473     0.61100
H1556       H  0.95255002  0.23971443  0.97291715     0.08400
O1557       O  0.60302674  0.35007708  0.91600187    -0.40400
O1558       O  0.61836273  0.31495729  0.89046641    -0.39600
O1559       O  0.92425572  0.14962127  0.92774048    -0.39600
O1560       O  0.95736114  0.15270653  0.96220317    -0.37300
O1561       O  0.91494375  0.25402387  0.00940641    -0.38200
O1562       O  0.90244653  0.20600545  0.03679138    -0.34300
O1563       O  0.60154148  0.25635205  0.98981093    -0.35800
O1564       O  0.56001941  0.19437444  0.97672891    -0.40000
C1565       C  0.76257253  0.52772208  0.98685808    -0.13700
C1566       C  0.76717563  0.49576437  0.97780341     0.16600
C1567       C  0.77609184  0.47273194  0.99502405     0.02900
C1568       C  0.77940755  0.48199381  0.02106913    -0.12200
C1569       C  0.77487270  0.51405526  0.03023190    -0.03300
C1570       C  0.76670222  0.53748746  0.01279251     0.02200
C1571       C  0.76101006  0.48625679  0.95034000     0.09000
N1572       N  0.78211557  0.44028393  0.98647534     0.65400
H1573       H  0.78587178  0.46417099  0.03437505     0.18300
N1574       N  0.76359557  0.07177963  0.02086271     0.75800
H1575       H  0.75606160  0.54547763  0.97350819     0.09800
C1576       C  0.72535260  0.45165951  0.94120528     0.03500
C1577       C  0.72173383  0.44337803  0.91504622    -0.05200
C1578       C  0.75260123  0.46905651  0.89779921    -0.23600
C1579       C  0.78823863  0.00387927  0.90699160     0.12700
C1580       C  0.79195953  0.01188764  0.93322459    -0.12800
N1581       N  0.69271313  0.42478602  0.95810990     0.64400
H1582       H  0.69456655  0.41665708  0.90803703     0.12300
N1583       N  0.82038707  0.03170664  0.89011021     0.61100
H1584       H  0.81909252  0.03845513  0.94040668     0.08400
O1585       O  0.73734727  0.07854443  0.01092794    -0.40400
O1586       O  0.78974096  0.09776868  0.03583080    -0.39600
O1587       O  0.79927068  0.44290197  0.96537910    -0.39600
O1588       O  0.77394563  0.41067181  0.00108871    -0.37300
O1589       O  0.81200767  0.04063702  0.86866889    -0.38200
O1590       O  0.85701883  0.05066101  0.89763039    -0.34300
O1591       O  0.68197031  0.43891167  0.97627036    -0.35800
O1592       O  0.67224000  0.38703910  0.95368045    -0.40000
C1593       C  0.76822727  0.26248501  0.99292052    -0.13700
C1594       C  0.76512984  0.23138172  0.97720130     0.16600
C1595       C  0.76741366  0.19863113  0.98803886     0.02900
C1596       C  0.77182635  0.19732861  0.01443766    -0.12200
C1597       C  0.77354446  0.22771962  0.03028753    -0.03300
C1598       C  0.77206725  0.26092128  0.01939149     0.02200
C1599       C  0.75959023  0.23387169  0.94950132     0.09000
N1600       N  0.76445896  0.16619169  0.97265393     0.65400
H1601       H  0.77339734  0.17204036  0.02276314     0.18300
N1602       N  0.77323129  0.29249318  0.03486288     0.75800
H1603       H  0.76663879  0.28770286  0.98450616     0.09800
C1604       C  0.72415576  0.23228741  0.93973214     0.03500
C1605       C  0.72118034  0.23670917  0.91346702    -0.05200
C1606       C  0.75228029  0.24190270  0.89666153    -0.23600
C1607       C  0.78746076  0.24286220  0.90641274     0.12700
C1608       C  0.79083453  0.23926245  0.93278491    -0.12800
N1609       N  0.69090107  0.22581299  0.95608438     0.64400
H1610       H  0.69422109  0.23605551  0.90600710     0.12300
N1611       N  0.81942064  0.24659044  0.88988854     0.61100
H1612       H  0.81788910  0.24025721  0.94037597     0.08400
O1613       O  0.75238358  0.28361004  0.05510205    -0.40400
O1614       O  0.79177940  0.32895035  0.02702871    -0.39600
O1615       O  0.78734343  0.15180197  0.97705659    -0.39600
O1616       O  0.73670519  0.14945372  0.95614417    -0.37300
O1617       O  0.81073345  0.22703551  0.86928962    -0.38200
O1618       O  0.85624070  0.26620392  0.89700870    -0.34300
O1619       O  0.67026853  0.24246525  0.95094988    -0.35800
O1620       O  0.67945755  0.20042118  0.97420369    -0.40000
C1621       C  0.77776220  0.72424682  0.05803866     0.03800
C1622       C  0.74861332  0.68929973  0.07117897    -0.12400
C1623       C  0.75386602  0.68374021  0.09702815     0.01300
C1624       C  0.78850218  0.71395476  0.10972039    -0.10900
C1625       C  0.81825717  0.74891724  0.09674593     0.03700
C1626       C  0.81238695  0.75407854  0.07090020    -0.10300
H1627       H  0.72249648  0.66591049  0.06093392     0.09300
H1628       H  0.79319831  0.70937709  0.12950361     0.06900
H1629       H  0.83552698  0.78029441  0.06040210     0.06700
C1630       C  0.74773524  0.74802734  0.86927940     0.03800
C1631       C  0.77697849  0.78367072  0.85667183    -0.12400
C1632       C  0.77070350  0.79139902  0.83139509     0.01300
C1633       C  0.73506889  0.76268742  0.81874576    -0.10900
C1634       C  0.70532114  0.72722026  0.83120009     0.03700
C1635       C  0.71209594  0.71994078  0.85642583    -0.10300
H1636       H  0.80369997  0.80605374  0.86696116     0.09300
H1637       H  0.72962786  0.76879745  0.79944142     0.06900
H1638       H  0.68916688  0.69296824  0.86643051     0.06700
O1639       O  0.75338203  0.67227049  0.46440505    -0.72300
O1640       O  0.78815347  0.77994114  0.43117908    -0.73300
O1641       O  0.82667163  0.74824178  0.46295993    -0.61900
O1642       O  0.71506780  0.70402244  0.43281379    -0.70300
O1643       O  0.69544020  0.72336604  0.46710236    -0.69900
O1644       O  0.80728835  0.76769324  0.49730412    -0.61100
O1645       O  0.76875740  0.79947701  0.46548862    -0.73600
O1646       O  0.73399391  0.69158583  0.49882010    -0.72400
Cu1647     Cu  0.77151982  0.72546761  0.44667557     1.04600
Cu1648     Cu  0.75068548  0.74620985  0.48337433     1.04300
C1649       C  0.73905401  0.66516845  0.48706792     0.93900
C1650       C  0.78292102  0.80635704  0.44276876     0.93000
C1651       C  0.83437965  0.76393163  0.48517558     0.85200
C1652       C  0.68787931  0.70768038  0.44488654     0.91400
O1653       O  0.53082057  0.89551584  0.79822767    -0.72300
O1654       O  0.63948057  0.93270562  0.83117758    -0.73300
O1655       O  0.60619950  0.96975422  0.79961832    -0.61900
O1656       O  0.56425326  0.85863688  0.82990758    -0.70300
O1657       O  0.58434054  0.83993695  0.79553543    -0.69900
O1658       O  0.62679782  0.95139274  0.76532693    -0.61100
O1659       O  0.65965893  0.91402252  0.79683844    -0.73600
O1660       O  0.55127500  0.87728294  0.76381810    -0.72400
Cu1661     Cu  0.58443521  0.91477130  0.81590615     1.04600
Cu1662     Cu  0.60620203  0.89501142  0.77918549     1.04300
C1663       C  0.52413288  0.88138528  0.77560192     0.93900
C1664       C  0.66649554  0.92838825  0.81939255     0.93000
C1665       C  0.62254439  0.97799910  0.77748060     0.85200
C1666       C  0.56866400  0.83204589  0.81787020     0.91400
C1667       C  0.77892590  0.02238809  0.05799211     0.03800
C1668       C  0.81363608  0.02784139  0.07098346    -0.12400
C1669       C  0.81953765  0.03879013  0.09679192     0.01300
C1670       C  0.78993854  0.54385735  0.10961679    -0.10900
C1671       C  0.75496580  0.03841704  0.09693578     0.03700
C1672       C  0.74923237  0.02669005  0.07126273    -0.10300
H1673       H  0.83687384  0.02523677  0.06061246     0.09300
H1674       H  0.79482572  0.55343018  0.12930788     0.06900
H1675       H  0.72243781  0.02242900  0.06122145     0.06700
C1676       C  0.74715814  0.95776360  0.87052046     0.03800
C1677       C  0.77550756  0.95065071  0.85787199    -0.12400
C1678       C  0.76912509  0.93750529  0.83245664     0.01300
C1679       C  0.73410791  0.93191737  0.81975471    -0.10900
C1680       C  0.70520582  0.93844802  0.83223372     0.03700
C1681       C  0.71210559  0.95154677  0.85763116    -0.10300
H1682       H  0.80187309  0.95429076  0.86814323     0.09300
H1683       H  0.72867563  0.92119637  0.80029989     0.06900
H1684       H  0.68989530  0.95626676  0.86764817     0.06700
C1685       C  0.48020460  0.72413491  0.05791330     0.03800
C1686       C  0.47492293  0.75325268  0.07087653    -0.12400
C1687       C  0.46379616  0.74788607  0.09675093     0.01300
C1688       C  0.95921225  0.71346071  0.10976576    -0.10900
C1689       C  0.46497849  0.68429956  0.09714795     0.03700
C1690       C  0.47589506  0.69017704  0.07124304    -0.10300
H1691       H  0.47809853  0.77933209  0.06046886     0.09300
H1692       H  0.94980199  0.70865778  0.12955656     0.06900
H1693       H  0.47921358  0.66738968  0.06102117     0.06700
C1694       C  0.54111947  0.75241207  0.86949008     0.03800
C1695       C  0.54563281  0.78644481  0.85617435    -0.12400
C1696       C  0.55775873  0.79291585  0.83048805     0.01300
C1697       C  0.56378430  0.76387138  0.81790912    -0.10900
C1698       C  0.55862683  0.72914019  0.83084465     0.03700
C1699       C  0.54688468  0.72352125  0.85662611    -0.10300
H1700       H  0.54139670  0.80876899  0.86626809     0.09300
H1701       H  0.57396183  0.76906346  0.79826438     0.06900
H1702       H  0.54406888  0.69766429  0.86711945     0.06700
O1703       O  0.91989236  0.00897339  0.12945307    -0.72300
O1704       O  0.95999900  0.61923036  0.09825627    -0.73300
O1705       O  0.49473426  0.58359644  0.13010161    -0.61900
O1706       O  0.88535343  0.54477709  0.09777012    -0.70300
O1707       O  0.86525316  0.56352625  0.13211580    -0.71700
O1708       O  0.97448836  0.60218058  0.16445287    -0.61100
O1709       O  0.93997791  0.63812395  0.13257148    -0.73600
O1710       O  0.89968472  0.52766659  0.16377912    -0.72400
Cu1711     Cu  0.94074357  0.56352686  0.11272450     1.04600
Cu1712     Cu  0.91917837  0.58355035  0.14941690     1.04300
C1713       C  0.90422085  0.00110506  0.15177927     0.93900
C1714       C  0.95514714  0.64569759  0.11009851     0.93000
C1715       C  0.50152592  0.59788679  0.15268665     0.85200
C1716       C  0.85830834  0.54898039  0.10960666     0.91400
C1717       C  0.60988035  0.88876015  0.39138177     0.03800
C1718       C  0.64403166  0.91851318  0.40463443    -0.12400
C1719       C  0.64949149  0.91293224  0.43046898     0.01300
C1720       C  0.61990298  0.87747243  0.44305754    -0.10900
C1721       C  0.58580827  0.84717994  0.42999009     0.03700
C1722       C  0.58085572  0.85323482  0.40415400    -0.10300
H1723       H  0.66721331  0.94507899  0.39442067     0.09300
H1724       H  0.62438018  0.87258763  0.46282511     0.06900
H1725       H  0.55505640  0.82987111  0.39367673     0.06700
C1726       C  0.58341464  0.91707912  0.20265415     0.03800
C1727       C  0.54786426  0.88877428  0.18980480    -0.12400
C1728       C  0.54091616  0.89604642  0.16460969     0.01300
C1729       C  0.57038284  0.93173906  0.15221734    -0.10900
C1730       C  0.60584827  0.96065027  0.16490738     0.03700
C1731       C  0.61235210  0.95289624  0.19011337    -0.10300
H1732       H  0.52510409  0.86169975  0.19980794     0.09300
H1733       H  0.56481656  0.93788451  0.13295066     0.06900
H1734       H  0.63896543  0.97541054  0.20042656     0.06700
C1735       C  0.60817961  0.67856498  0.39338443     0.03800
C1736       C  0.64139633  0.68197029  0.40721437    -0.12400
C1737       C  0.64852887  0.69621337  0.43236890     0.01300
C1738       C  0.62018059  0.70414538  0.44430123    -0.10900
C1739       C  0.58588017  0.69948291  0.43110227     0.03700
C1740       C  0.58020988  0.68675648  0.40561081    -0.10300
H1741       H  0.66281094  0.67535900  0.39788539     0.09300
H1742       H  0.62567243  0.71548483  0.46361538     0.06900
H1743       H  0.55488958  0.68473674  0.39490542     0.06700
C1744       C  0.57860858  0.62021329  0.20512362     0.03800
C1745       C  0.60836345  0.61591425  0.19196968    -0.12400
C1746       C  0.60383824  0.60634770  0.16594607     0.01300
C1747       C  0.56971617  0.60250756  0.15296287    -0.10900
C1748       C  0.53991683  0.60732348  0.16576192     0.03700
C1749       C  0.54491937  0.61667190  0.19184401    -0.10300
H1750       H  0.63413452  0.61835180  0.20236871     0.09300
H1751       H  0.56557996  0.59428031  0.13303096     0.06900
H1752       H  0.52159943  0.61915492  0.20221100     0.06700
O1753       O  0.69423963  0.61743978  0.09824901    -0.72300
O1754       O  0.62517115  0.00777670  0.13039947    -0.73300
O1755       O  0.62418080  0.58127520  0.13065772    -0.61900
O1756       O  0.69507087  0.54400894  0.09807746    -0.70300
O1757       O  0.73495929  0.56404261  0.13208623    -0.69900
O1758       O  0.66391044  0.60104376  0.16473802    -0.61100
O1759       O  0.66494881  0.52753593  0.16446625    -0.73600
O1760       O  0.73409877  0.63765259  0.13227941    -0.72400
Cu1761     Cu  0.65824944  0.56192730  0.11319713     1.04600
Cu1762     Cu  0.70089027  0.58331378  0.14957310     1.04300
C1763       C  0.72575834  0.64467888  0.10993510     0.93900
C1764       C  0.63361363  0.00035816  0.15259512     0.93000
C1765       C  0.63227629  0.59626969  0.15305460     0.85200
C1766       C  0.72670851  0.54879964  0.10975508     0.91400
O1767       O  0.95628404  0.67105726  0.46325786    -0.72300
O1768       O  0.52642660  0.78059446  0.43086502    -0.73300
O1769       O  0.52679199  0.70669414  0.43126936    -0.61900
O1770       O  0.95608746  0.74524901  0.46307752    -0.70300
O1771       O  0.49576643  0.76530342  0.49716929    -0.69900
O1772       O  0.56613802  0.72669000  0.46551292    -0.61100
O1773       O  0.56598860  0.80073005  0.46502559    -0.73600
O1774       O  0.49566534  0.69107262  0.49749483    -0.72400
Cu1775     Cu  0.98997970  0.72517672  0.44594811     1.04600
Cu1776     Cu  0.53226429  0.74665574  0.48247395     1.04300
C1777       C  0.96443444  0.66378536  0.48557719     0.93900
C1778       C  0.55780982  0.80783768  0.44265732     0.93000
C1779       C  0.55808878  0.71117008  0.44326106     0.85200
C1780       C  0.96446632  0.76097591  0.48529593     0.91400
C1781       C  0.91681980  0.79585911  0.53536682     0.03800
C1782       C  0.88193928  0.79022651  0.52253269    -0.12400
C1783       C  0.87399750  0.77557398  0.49742493     0.01300
C1784       C  0.90216518  0.76775942  0.48505125    -0.10900
C1785       C  0.93716223  0.77311866  0.49766996     0.03700
C1786       C  0.94424078  0.78729094  0.52286193    -0.10300
H1787       H  0.86010378  0.79543617  0.53260769     0.09300
H1788       H  0.89597278  0.75585495  0.46587177     0.06900
H1789       H  0.47058926  0.79080159  0.53309771     0.06700
C1790       C  0.94491208  0.85485701  0.72378209     0.03800
C1791       C  0.97965481  0.86043109  0.73681818    -0.12400
C1792       C  0.98550236  0.87142336  0.76263372     0.01300
C1793       C  0.95571034  0.87619408  0.77543502    -0.10900
C1794       C  0.92090417  0.87104146  0.76266798     0.03700
C1795       C  0.91571992  0.86025600  0.73681632    -0.10300
H1796       H  0.00253337  0.85703175  0.72659754     0.09300
H1797       H  0.96030294  0.88528215  0.79521697     0.06900
H1798       H  0.88967478  0.85734505  0.72650607     0.06700
O1799       O  0.79041168  0.83835858  0.79674238    -0.72300
O1800       O  0.85859498  0.94839718  0.76477922    -0.73300
O1801       O  0.86029877  0.87543331  0.76414967    -0.61900
O1802       O  0.78891657  0.91154586  0.79738675    -0.70300
O1803       O  0.82889367  0.93162094  0.83135111    -0.69900
O1804       O  0.90014844  0.89528794  0.79817396    -0.61100
O1805       O  0.89870036  0.96853256  0.79869294    -0.73600
O1806       O  0.83014386  0.85818239  0.83082185    -0.72400
Cu1807     Cu  0.82312756  0.89268778  0.77962045     1.04600
Cu1808     Cu  0.86588943  0.91410230  0.81593507     1.04300
C1809       C  0.79876270  0.83098416  0.81897982     0.93900
C1810       C  0.89004340  0.97571344  0.77647684     0.93000
C1811       C  0.89215218  0.88054594  0.77570821     0.85200
C1812       C  0.79718568  0.92675535  0.81973087     0.91400
C1813       C  0.91349147  0.58138105  0.53610893     0.03800
C1814       C  0.94222262  0.61727208  0.52353735    -0.12400
C1815       C  0.93663510  0.62410141  0.49797047     0.01300
C1816       C  0.90216704  0.59417757  0.48495795    -0.10900
C1817       C  0.87286867  0.55834488  0.49738864     0.03700
C1818       C  0.87903133  0.55198817  0.52294090    -0.10300
H1819       H  0.46821141  0.64037247  0.53401992     0.09300
H1820       H  0.89715843  0.59964846  0.46541295     0.06900
H1821       H  0.85609758  0.02511423  0.53302760     0.06700
C1822       C  0.94014861  0.55689490  0.72520372     0.03800
C1823       C  0.91131371  0.52167914  0.73830656    -0.12400
C1824       C  0.91765521  0.51518097  0.76380343     0.01300
C1825       C  0.95294196  0.54479833  0.77626767    -0.10900
C1826       C  0.98215247  0.58025475  0.76348451     0.03700
C1827       C  0.97498702  0.58658013  0.73810605    -0.10300
H1828       H  0.88500334  0.99832139  0.72812971     0.09300
H1829       H  0.95854487  0.53938389  0.79569488     0.06900
H1830       H  0.49738978  0.61364626  0.72793765     0.06700
O1831       O  0.95842370  0.80771389  0.09764941    -0.72300
O1832       O  0.92072174  0.87846990  0.12968795    -0.73300
O1833       O  0.49455696  0.87733711  0.12978260    -0.61900
O1834       O  0.88473944  0.80868432  0.09756049    -0.70300
O1835       O  0.86411623  0.76890299  0.13182070    -0.69900
O1836       O  0.97378967  0.83734672  0.16394359    -0.61100
O1837       O  0.90006755  0.83858924  0.16388600    -0.73600
O1838       O  0.93777153  0.76777874  0.13183069    -0.72400
Cu1839     Cu  0.94036444  0.84449387  0.11250690     1.04600
Cu1840     Cu  0.91819805  0.80177627  0.14904974     1.04300
C1841       C  0.95331391  0.77604619  0.10945750     0.93900
C1842       C  0.90499852  0.87014868  0.15201230     0.93000
C1843       C  0.50141977  0.86866623  0.15208099     0.85200
C1844       C  0.85730025  0.77721110  0.10942035     0.91400
C1845       C  0.80436468  0.88256564  0.38975370     0.03800
C1846       C  0.80075254  0.84904941  0.40323624    -0.12400
C1847       C  0.79142615  0.84418008  0.42936130     0.01300
C1848       C  0.78671765  0.87395784  0.44201277    -0.10900
C1849       C  0.79074327  0.90801967  0.42882026     0.03700
C1850       C  0.79978013  0.91215314  0.40264627    -0.10300
H1851       H  0.80368527  0.82600870  0.39304090     0.09300
H1852       H  0.77889283  0.87008802  0.46206478     0.06900
H1853       H  0.80237182  0.93785555  0.39207099     0.06700
C1854       C  0.87296716  0.91942922  0.20253793     0.03800
C1855       C  0.87979889  0.89111114  0.18983369    -0.12400
C1856       C  0.89377659  0.89796301  0.16449316     0.01300
C1857       C  0.90005149  0.93330467  0.15182467    -0.10900
C1858       C  0.89306790  0.96182726  0.16426326     0.03700
C1859       C  0.87894650  0.95427681  0.18954499    -0.10300
H1860       H  0.87582692  0.86462595  0.20012708     0.09300
H1861       H  0.91169492  0.93929674  0.13249476     0.06900
H1862       H  0.87393606  0.97617451  0.19955442     0.06700
O1863       O  0.78801463  0.96934412  0.43029283    -0.72300
O1864       O  0.75417966  0.54225139  0.46389065    -0.73300
O1865       O  0.82665850  0.53916689  0.46252270    -0.61900
O1866       O  0.71581823  0.97260033  0.43150547    -0.70300
O1867       O  0.69522870  0.93250115  0.46562833    -0.69900
O1868       O  0.80613190  0.99910019  0.49663417    -0.61100
O1869       O  0.73381582  0.00212904  0.49796853    -0.73600
O1870       O  0.76760661  0.92947189  0.46450929    -0.72400
Cu1871     Cu  0.77192067  0.50728223  0.44589235     1.04600
Cu1872     Cu  0.74994706  0.96439826  0.48234997     1.04300
C1873       C  0.78219251  0.93725072  0.44190405     0.93900
C1874       C  0.73966624  0.53432031  0.48653544     0.93000
C1875       C  0.83365839  0.53048437  0.48476645     0.85200
C1876       C  0.68836366  0.94110767  0.44331684     0.91400
C1877       C  0.71911818  0.58883522  0.53969721     0.03800
C1878       C  0.72340789  0.55939205  0.52630485    -0.12400
C1879       C  0.73129805  0.56343498  0.49998360     0.01300
C1880       C  0.73478918  0.59744384  0.48710241    -0.10900
C1881       C  0.73033336  0.62707678  0.50016014     0.03700
C1882       C  0.72145352  0.62194777  0.52634305    -0.10300
H1883       H  0.72223734  0.03417618  0.53664563     0.09300
H1884       H  0.74209628  0.60142202  0.46697499     0.06900
H1885       H  0.71789672  0.64453536  0.53662866     0.06700
C1886       C  0.65875954  0.56190871  0.72793640     0.03800
C1887       C  0.65193688  0.52674611  0.74081941    -0.12400
C1888       C  0.63485229  0.51781352  0.76539110     0.01300
C1889       C  0.62582591  0.54535071  0.77726008    -0.10900
C1890       C  0.63260548  0.58088431  0.76459997     0.03700
C1891       C  0.64943564  0.58904850  0.73992680    -0.10300
H1892       H  0.65792315  0.50531813  0.73104770     0.09300
H1893       H  0.61197396  0.53828909  0.79602276     0.06900
H1894       H  0.65398821  0.61571546  0.72958558     0.06700
O1895       O  0.52870285  0.59973773  0.79820704    -0.72300
O1896       O  0.63820614  0.66855589  0.83048014    -0.73300
O1897       O  0.56441362  0.66949697  0.83016444    -0.61900
O1898       O  0.60292209  0.59903191  0.79853960    -0.70300
O1899       O  0.62392103  0.63890905  0.76434794    -0.69900
O1900       O  0.58493245  0.70919231  0.79588267    -0.61100
O1901       O  0.65903819  0.70854695  0.79631939    -0.73600
O1902       O  0.54936387  0.63926169  0.76384566    -0.72400
Cu1903     Cu  0.58276413  0.63277868  0.81549386     1.04600
Cu1904     Cu  0.60500695  0.67535718  0.77889877     1.04300
C1905       C  0.52174592  0.60806781  0.77584620     0.93900
C1906       C  0.66583995  0.69990169  0.81864172     0.93000
C1907       C  0.56936017  0.70103054  0.81825292     0.85200
C1908       C  0.61944735  0.60768769  0.77643383     0.91400
C1909       C  0.65132386  0.56460681  0.65632994    -0.13700
C1910       C  0.69008454  0.57267110  0.64854089     0.16600
C1911       C  0.71956253  0.57847101  0.66713771     0.02900
C1912       C  0.70909028  0.57551632  0.69310243    -0.12200
C1913       C  0.67010893  0.56703291  0.70068753    -0.03300
C1914       C  0.64117733  0.56150345  0.68209749     0.02200
C1915       C  0.69894841  0.57594312  0.62086285     0.09000
N1916       N  0.75965566  0.58656735  0.66010218     0.65400
H1917       H  0.73115979  0.57923253  0.70746325     0.18300
N1918       N  0.60137458  0.05305346  0.68920044     0.75800
H1919       H  0.62887617  0.06085748  0.64222905     0.09800
C1920       C  0.67594440  0.54275943  0.60447964     0.03500
C1921       C  0.68291439  0.54798651  0.57817451    -0.05200
C1922       C  0.71327674  0.58532495  0.56778779    -0.23600
C1923       C  0.73712162  0.61837184  0.58435119     0.12700
C1924       C  0.72900933  0.61340730  0.61061570    -0.12800
N1925       N  0.64600712  0.00355401  0.61432364     0.64400
H1926       H  0.66468493  0.02253138  0.56569777     0.12300
N1927       N  0.77033111  0.65654766  0.57507772     0.61100
H1928       H  0.74671265  0.63879723  0.62327179     0.08400
O1929       O  0.57547694  0.01833020  0.69782533    -0.40400
O1930       O  0.59447689  0.08199528  0.69072328    -0.39600
O1931       O  0.78997524  0.60861186  0.67407261    -0.39600
O1932       O  0.76450639  0.56922473  0.64112931    -0.37300
O1933       O  0.79527467  0.65712492  0.55892927    -0.38200
O1934       O  0.77779934  0.68955157  0.58529623    -0.34300
O1935       O  0.61187357  0.98304739  0.60343622    -0.35800
O1936       O  0.65488523  0.98773993  0.63252676    -0.40000
C1937       C  0.87466939  0.93655738  0.27386427    -0.13700
C1938       C  0.84004402  0.90022659  0.28190807     0.16600
C1939       C  0.81550672  0.87060073  0.26372161     0.02900
C1940       C  0.82671136  0.87787508  0.23791838    -0.12200
C1941       C  0.86202746  0.91374305  0.22993476    -0.03300
C1942       C  0.88632860  0.94352222  0.24817388     0.02200
C1943       C  0.83038467  0.89409513  0.30946734     0.09000
N1944       N  0.77989656  0.83279358  0.27113017     0.65400
H1945       H  0.80806824  0.85505692  0.22394626     0.18300
N1946       N  0.92353796  0.98015574  0.24115774     0.75800
H1947       H  0.89344265  0.95922283  0.28788480     0.09800
C1948       C  0.85723374  0.89158516  0.32700635     0.03500
C1949       C  0.84786293  0.88784767  0.35305263    -0.05200
C1950       C  0.81214542  0.88601840  0.36197994    -0.23600
C1951       C  0.78496228  0.88796613  0.34439906     0.12700
C1952       C  0.79472896  0.89247005  0.31835339    -0.12800
N1953       N  0.89373263  0.89234237  0.31870388     0.64400
H1954       H  0.86854077  0.88610846  0.36654259     0.12300
N1955       N  0.74709753  0.88443359  0.35253286     0.61100
H1956       H  0.77413856  0.89426630  0.30481674     0.08400
O1957       O  0.94889575  0.97863303  0.22631526    -0.40400
O1958       O  0.93334964  0.01333554  0.25206606    -0.39600
O1959       O  0.74849011  0.81706225  0.25722981    -0.39600
O1960       O  0.78096742  0.81309818  0.29020604    -0.37300
O1961       O  0.73363514  0.90462721  0.34137573    -0.38200
O1962       O  0.72504814  0.35832086  0.36896469    -0.34300
O1963       O  0.92565945  0.90951282  0.33211773    -0.35800
O1964       O  0.89318372  0.87276152  0.29924494    -0.40000
C1965       C  0.96058666  0.56987830  0.65392894    -0.13700
C1966       C  0.92375772  0.56472139  0.64469656     0.16600
C1967       C  0.89213969  0.55765875  0.66196167     0.02900
C1968       C  0.89845471  0.55568914  0.68818456    -0.12200
C1969       C  0.93535659  0.56053130  0.69743729    -0.03300
C1970       C  0.96672778  0.56776947  0.67997472     0.02200
C1971       C  0.92058593  0.56915487  0.61697399     0.09000
N1972       N  0.85381740  0.55252083  0.65335837     0.65400
H1973       H  0.87432435  0.55011013  0.70152967     0.18300
N1974       N  0.50494418  0.57279910  0.68819744     0.75800
H1975       H  0.48486962  0.57556746  0.64065816     0.09800
C1976       C  0.92124397  0.60362257  0.60648386     0.03500
C1977       C  0.91917214  0.60674297  0.58001828    -0.05200
C1978       C  0.91718509  0.57666911  0.56377554    -0.23600
C1979       C  0.91659791  0.54213415  0.57428671     0.12700
C1980       C  0.91816204  0.53879697  0.60082929    -0.12800
N1981       N  0.42392584  0.63556976  0.62227935     0.64400
H1982       H  0.41919226  0.63300038  0.57195936     0.12300
N1983       N  0.91568011  0.01100245  0.55837558     0.61100
H1984       H  0.91814621  0.51262099  0.60901501     0.08400
O1985       O  0.53788129  0.60119690  0.67885784    -0.40400
O1986       O  0.50579364  0.54680768  0.70277072    -0.39600
O1987       O  0.83856659  0.53537762  0.63244072    -0.39600
O1988       O  0.83343046  0.56225880  0.66763549    -0.37300
O1989       O  0.93621499  0.02034704  0.53798795    -0.38200
O1990       O  0.89740504  0.97438416  0.56590416    -0.34300
O1991       O  0.44732375  0.64794211  0.64132540    -0.35800
O1992       O  0.40550620  0.65396640  0.61590400    -0.40000
C1993       C  0.93020975  0.85137160  0.59793686    -0.13700
C1994       C  0.93101227  0.82373259  0.61533456     0.16600
C1995       C  0.92695603  0.78706159  0.60632548     0.02900
C1996       C  0.92266667  0.77889550  0.58020100    -0.12200
C1997       C  0.92261803  0.80678309  0.56269956    -0.03300
C1998       C  0.92624687  0.84337403  0.57168777     0.02200
C1999       C  0.93483585  0.83277808  0.64296303     0.09000
N2000       N  0.92677839  0.75769138  0.62351053     0.65400
H2001       H  0.91927656  0.75046317  0.57348084     0.18300
N2002       N  0.92671598  0.87288468  0.55443573     0.75800
H2003       H  0.93309768  0.87949891  0.60482666     0.09800
C2004       C  0.97065588  0.86573985  0.65336532     0.03500
C2005       C  0.97289685  0.87217950  0.67974211    -0.05200
C2006       C  0.94061538  0.84610610  0.69606873    -0.23600
C2007       C  0.90468060  0.81323208  0.68558368     0.12700
C2008       C  0.90212604  0.80734327  0.65914392    -0.12800
N2009       N  0.00523065  0.89226582  0.63762374     0.64400
H2010       H  0.00035632  0.89760283  0.68767524     0.12300
N2011       N  0.87117375  0.78491024  0.70142293     0.61100
H2012       H  0.87472180  0.78197568  0.65111131     0.08400
O2013       O  0.90629087  0.88976029  0.55945321    -0.40400
O2014       O  0.95018431  0.88470080  0.53529309    -0.39600
O2015       O  0.89793403  0.72112521  0.62280840    -0.39600
O2016       O  0.95522611  0.76809909  0.63943268    -0.37300
O2017       O  0.83482303  0.76981066  0.69375388    -0.38200
O2018       O  0.87782207  0.77158482  0.72179761    -0.34300
O2019       O  0.52650875  0.92975292  0.64268905    -0.35800
O2020       O  0.51714412  0.87779577  0.62030873    -0.40000
C2021       C  0.63111794  0.67591224  0.32289091    -0.13700
C2022       C  0.59253411  0.64673047  0.31382111     0.16600
C2023       C  0.55904333  0.62786589  0.33082721     0.02900
C2024       C  0.56503581  0.63886671  0.35659355    -0.12200
C2025       C  0.60363918  0.66836515  0.36580567    -0.03300
C2026       C  0.63705500  0.68753071  0.34853374     0.02200
C2027       C  0.58738734  0.63949565  0.28608788     0.09000
N2028       N  0.01865444  0.59879034  0.32214883     0.65400
H2029       H  0.03932178  0.62390578  0.36963187     0.18300
N2030       N  0.67646515  0.72029505  0.35624256     0.75800
H2031       H  0.65645270  0.69112172  0.30959024     0.09800
C2032       C  0.58356334  0.66671363  0.26955212     0.03500
C2033       C  0.58077949  0.65965774  0.24323527    -0.05200
C2034       C  0.58131527  0.62591927  0.23310770    -0.23600
C2035       C  0.58496160  0.59858802  0.24975739     0.12700
C2036       C  0.58879439  0.60626349  0.27600576    -0.12800
N2037       N  0.58299071  0.70176138  0.27907305     0.64400
H2038       H  0.57808168  0.68062733  0.23050726     0.12300
N2039       N  0.58360216  0.56244770  0.24051019     0.61100
H2040       H  0.59193024  0.58562588  0.28879874     0.08400
O2041       O  0.70863092  0.72334833  0.34700290    -0.40400
O2042       O  0.67920466  0.74898892  0.36964437    -0.39600
O2043       O  0.01303314  0.57016954  0.30758059    -0.39600
O2044       O  0.98801722  0.59947293  0.33087626    -0.37300
O2045       O  0.60499311  0.54974889  0.25095781    -0.38200
O2046       O  0.05772765  0.54060658  0.22392759    -0.34300
O2047       O  0.59966205  0.73464309  0.26646302    -0.35800
O2048       O  0.56310306  0.69916639  0.29896718    -0.40000
C2049       C  0.62635295  0.90799694  0.26615685    -0.13700
C2050       C  0.59513954  0.90278287  0.28284342     0.16600
C2051       C  0.56014059  0.90209660  0.27309379     0.02900
C2052       C  0.55721060  0.90654795  0.24684439    -0.12200
C2053       C  0.58806370  0.91115286  0.23004506    -0.03300
C2054       C  0.62313247  0.91189639  0.23979795     0.02200
C2055       C  0.60001685  0.89915539  0.31049635     0.09000
N2056       N  0.52726715  0.89654125  0.28946401     0.65400
H2057       H  0.53047406  0.90634858  0.23939693     0.18300
N2058       N  0.65514779  0.91576008  0.22328658     0.75800
H2059       H  0.65317057  0.90850785  0.27373766     0.09800
C2060       C  0.60003422  0.86498934  0.32102623     0.03500
C2061       C  0.60338617  0.86256469  0.34746668    -0.05200
C2062       C  0.60622365  0.89313925  0.36363508    -0.23600
C2063       C  0.60701211  0.92769297  0.35300409     0.12700
C2064       C  0.60423217  0.93038068  0.32652702    -0.12800
N2065       N  0.59587205  0.83228723  0.30532563     0.64400
H2066       H  0.60336477  0.83631718  0.35556907     0.12300
N2067       N  0.60945005  0.95960904  0.36873109     0.61100
H2068       H  0.60429004  0.95659991  0.31834117     0.08400
O2069       O  0.64654825  0.89595525  0.20278971    -0.40400
O2070       O  0.69201307  0.93604645  0.23025231    -0.39600
O2071       O  0.00818136  0.91492766  0.28471288    -0.39600
O2072       O  0.01465626  0.87047236  0.30723122    -0.37300
O2073       O  0.62983380  0.99625888  0.36135874    -0.38200
O2074       O  0.58824042  0.45104186  0.38870929    -0.34300
O2075       O  0.61525462  0.81442549  0.31072575    -0.35800
O2076       O  0.56999780  0.81854672  0.28756618    -0.40000
C2077       C  0.54835959  0.77424906  0.94051851    -0.13700
C2078       C  0.51481596  0.73819275  0.94987916     0.16600
C2079       C  0.98976691  0.70671427  0.93281495     0.02900
C2080       C  0.99904049  0.71227993  0.90668656    -0.12200
C2081       C  0.53284895  0.74822172  0.89728374    -0.03300
C2082       C  0.55798440  0.77956951  0.91448124     0.02200
C2083       C  0.50607041  0.73470907  0.97752235     0.09000
N2084       N  0.95532037  0.66896430  0.94163204     0.65400
H2085       H  0.97988088  0.68824600  0.89353424     0.18300
N2086       N  0.59381061  0.81639421  0.90601707     0.75800
H2087       H  0.56755285  0.79823636  0.95370040     0.09800
C2088       C  0.53136386  0.72984722  0.99495675     0.03500
C2089       C  0.52247836  0.72666774  0.02100604    -0.05200
C2090       C  0.48834881  0.72794691  0.03010532    -0.23600
C2091       C  0.96266756  0.73264674  0.01253525     0.12700
C2092       C  0.97222714  0.73646547  0.98645221    -0.12800
N2093       N  0.56549970  0.72695124  0.98631583     0.64400
H2094       H  0.54225606  0.72295960  0.03424183     0.12300
N2095       N  0.92618305  0.73210007  0.02062338     0.61100
H2096       H  0.95262187  0.73988078  0.97291951     0.08400
O2097       O  0.60311743  0.85007971  0.91600935    -0.40400
O2098       O  0.61841183  0.81492224  0.89047881    -0.39600
O2099       O  0.92418866  0.64974366  0.92772435    -0.39600
O2100       O  0.95726628  0.65275033  0.96218432    -0.37300
O2101       O  0.91504992  0.75421224  0.00941521    -0.38200
O2102       O  0.90245600  0.70613588  0.03677588    -0.34300
O2103       O  0.60143382  0.75631635  0.98955354    -0.35800
O2104       O  0.55986226  0.69404980  0.97696731    -0.40000
C2105       C  0.76256462  0.02768656  0.98685730    -0.13700
C2106       C  0.76716267  0.99572466  0.97780527     0.16600
C2107       C  0.77606683  0.97268600  0.99502838     0.02900
C2108       C  0.77938235  0.98195098  0.02107303    -0.12200
C2109       C  0.77485645  0.01401952  0.03023243    -0.03300
C2110       C  0.76669221  0.03745342  0.01279103     0.02200
C2111       C  0.76101003  0.98622487  0.95034095     0.09000
N2112       N  0.78207894  0.94022919  0.98648280     0.65400
H2113       H  0.78584056  0.96412623  0.03438104     0.18300
N2114       N  0.76360021  0.57180959  0.02086685     0.75800
H2115       H  0.75606124  0.04544562  0.97350569     0.09800
C2116       C  0.72535563  0.95163295  0.94119849     0.03500
C2117       C  0.72174652  0.94336545  0.91503773    -0.05200
C2118       C  0.75262106  0.96905256  0.89779708    -0.23600
C2119       C  0.78822068  0.50389024  0.90698561     0.12700
C2120       C  0.79195179  0.51191241  0.93321714    -0.12800
N2121       N  0.69271025  0.92475069  0.95809682     0.64400
H2122       H  0.69458129  0.91664919  0.90802216     0.12300
N2123       N  0.82036092  0.53171062  0.89009719     0.61100
H2124       H  0.81908723  0.53848420  0.94039296     0.08400
O2125       O  0.73735354  0.57857542  0.01093057    -0.40400
O2126       O  0.78974018  0.59779520  0.03583890    -0.39600
O2127       O  0.79923341  0.94283892  0.96538760    -0.39600
O2128       O  0.77389587  0.91061475  0.00109733    -0.37300
O2129       O  0.81197095  0.54063069  0.86865591    -0.38200
O2130       O  0.85699628  0.55066905  0.89761058    -0.34300
O2131       O  0.68196278  0.93886583  0.97626087    -0.35800
O2132       O  0.67224197  0.88700563  0.95366124    -0.40000
C2133       C  0.76821582  0.76246140  0.99293335    -0.13700
C2134       C  0.76512784  0.73135964  0.97721712     0.16600
C2135       C  0.76741618  0.69861398  0.98805654     0.02900
C2136       C  0.77182787  0.69731441  0.01445504    -0.12200
C2137       C  0.77354006  0.72770544  0.03030223    -0.03300
C2138       C  0.77205622  0.76090214  0.01940424     0.02200
C2139       C  0.75959641  0.73384734  0.94951731     0.09000
N2140       N  0.76446600  0.66617640  0.97267275     0.65400
H2141       H  0.77340325  0.67202955  0.02278195     0.18300
N2142       N  0.77321676  0.79247438  0.03487342     0.75800
H2143       H  0.76662259  0.78767509  0.98451667     0.09800
C2144       C  0.72415097  0.73223149  0.93974299     0.03500
C2145       C  0.72118671  0.73666680  0.91347889    -0.05200
C2146       C  0.75230909  0.74190167  0.89667896    -0.23600
C2147       C  0.78750086  0.74288966  0.90643565     0.12700
C2148       C  0.79086208  0.73927681  0.93280763    -0.12800
N2149       N  0.69087466  0.72571136  0.95608959     0.64400
H2150       H  0.69421833  0.73599061  0.90601564     0.12300
N2151       N  0.81948598  0.74666145  0.88991783     0.61100
H2152       H  0.81792480  0.74029474  0.94040391     0.08400
O2153       O  0.75236801  0.78359211  0.05511211    -0.40400
O2154       O  0.79176485  0.82893102  0.02703829    -0.39600
O2155       O  0.78738465  0.65182096  0.97705861    -0.39600
O2156       O  0.73668630  0.64940753  0.95618143    -0.37300
O2157       O  0.81083031  0.72712712  0.86931193    -0.38200
O2158       O  0.85629916  0.76629266  0.89705010    -0.34300
O2159       O  0.67022178  0.74234369  0.95096034    -0.35800
O2160       O  0.67943511  0.70029919  0.97419716    -0.40000
loop_ 
_geom_bond_atom_site_label_1 
_geom_bond_atom_site_label_2 
_geom_bond_distance 
_geom_bond_site_symmetry_2 
_ccdc_geom_bond_type 
C1            C2   1.402       .  A
C1            C6   1.402       .  A
C1          C517   1.479       .  S
C2            C3   1.404       .  A
C2            H7   1.084       .  S
C3            C4   1.403       .  A
C3          C143   1.479       .  S
C4            C5   1.405       .  A
C4            H8   1.083       .  S
C5            C6   1.406       .  A
C5          C224   1.479       .  S
C6            H9   1.084       .  S
C10          C11   1.404       .  A
C10          C15   1.403       .  A
C10         C526   1.482       .  S
C11          C12   1.406       .  A
C11          H16   1.084       .  S
C12          C13   1.405       .  A
C12         C189   1.480       .  S
C13          C14   1.403       .  A
C13          H17   1.083       .  S
C14          C15   1.404       .  A
C14         C286   1.479       .  S
C15          H18   1.084       .  S
O19         Cu27   2.003       .  S
O19          C29   1.278       .  A
O20         Cu27   2.005       .  S
O20          C30   1.278       .  A
O21         Cu27   2.008       .  S
O21          C31   1.279       .  A
O22         Cu27   2.005       .  S
O22          C32   1.278       .  A
O23         Cu28   2.011       .  S
O23          C32   1.279       .  A
O24         Cu28   2.011       .  S
O24          C31   1.278       .  A
O25         Cu28   2.010       .  S
O25          C30   1.279       .  A
O26         Cu28   2.009       .  S
O26          C29   1.278       .  A
Cu27        Cu28   2.370       .  S
C29         C261   1.480       .  S
C30         C227   1.481       .  S
C31         C163   1.483       .  S
C32         C117   1.482       .  S
O33         Cu41   2.009       .  S
O33          C43   1.279       .  A
O34         Cu41   2.009       .  S
O34          C44   1.278       .  A
O35         Cu41   2.006       .  S
O35          C45   1.278       .  A
O36         Cu41   2.005       .  S
O36          C46   1.278       .  A
O37         Cu42   2.010       .  S
O37          C46   1.279       .  A
O38         Cu42   2.008       .  S
O38          C45   1.279       .  A
O39         Cu42   2.005       .  S
O39          C44   1.278       .  A
O40         Cu42   2.009       .  S
O40          C43   1.278       .  A
Cu41        Cu42   2.370       .  S
C43        C1252   1.483   1_455  S
C44          C60   1.481       .  S
C45         C808   1.481       .  S
C46          C76   1.482       .  S
C47          C48   1.404       .  A
C47          C52   1.404       .  A
C47         C489   1.486       .  S
C48          C49   1.405       .  A
C48          H53   1.083       .  S
C49         C590   1.405       .  A
C49         C636   1.481       .  S
C50         C589   1.405       .  A
C50         C591   1.405       .  A
C50          H54   1.083       .  S
C51          C52   1.405       .  A
C51         C590   1.405       .  A
C51         C686   1.481       .  S
C52          H55   1.084       .  S
C56          C57   1.404       .  A
C56          C61   1.403       .  A
C56         C498   1.483       .  S
C57          C58   1.406       .  A
C57          H62   1.083       .  S
C58          C59   1.405       .  A
C58         C192   1.482       .  S
C59          C60   1.405       .  A
C59          H63   1.083       .  S
C60          C61   1.405       .  A
C61          H64   1.084       .  S
C65          C66   1.403       .  A
C65          C70   1.403       .  A
C65         C470   1.484       .  S
C66          C67   1.406       .  A
C66          H71   1.084       .  S
C67        C1148   1.407       .  A
C67        C1301   1.482       .  S
C68        C1147   1.407       .  A
C68        C1149   1.406       .  A
C68          H72   1.083       .  S
C69          C70   1.406       .  A
C69        C1148   1.406       .  A
C69        C1174   1.483       .  S
C70          H73   1.084       .  S
C74          C75   1.402       .  A
C74          C79   1.403       .  A
C74         C461   1.484       .  S
C75          C76   1.405       .  A
C75          H80   1.084       .  S
C76          C77   1.407       .  A
C77          C78   1.407       .  A
C77          H81   1.083       .  S
C78          C79   1.407       .  A
C78         C287   1.484       .  S
C79          H82   1.084       .  S
O83        Cu631   2.007       .  S
O83          C93   1.278       .  A
O84         Cu91   2.006       .  S
O84          C94   1.278       .  A
O85       Cu1171   2.009       .  S
O85          C95   1.279   1_655  A
O86         Cu91   2.008       .  S
O86          C96   1.278       .  A
O87         Cu92   2.006       .  S
O87          C96   1.278       .  A
O88         Cu92   2.008       .  S
O88        C1175   1.278       .  A
O89         Cu92   2.011       .  S
O89          C94   1.279       .  A
O90         Cu92   2.008       .  S
O90         C633   1.278       .  A
Cu91        O623   2.007       .  S
Cu91       O1165   2.009       .  S
Cu91        Cu92   2.370       .  S
C93         C238   1.482       .  S
C93         O630   1.278       .  A
C94        C1149   1.483       .  S
C95         C128   1.483       .  S
C95        O1168   1.278   1_455  A
C96         C589   1.481       .  S
C97          C98   1.402       .  A
C97         C102   1.403       .  A
C97         C442   1.481       .  S
C98          C99   1.405       .  A
C98         H103   1.084       .  S
C99         C100   1.404       .  A
C99         C256   1.478       .  S
C100        C101   1.403       .  A
C100        H104   1.083       .  S
C101        C102   1.405       .  A
C101        C158   1.479       .  S
C102        H105   1.084       .  S
C106        C107   1.403       .  A
C106        C111   1.403       .  A
C106        C433   1.481       .  S
C107        C108   1.404       .  A
C107        H112   1.084       .  S
C108        C109   1.403       .  A
C108        C223   1.479       .  S
C109        C110   1.404       .  A
C109        H113   1.083       .  S
C110        C111   1.405       .  A
C110        C144   1.478       .  S
C111        H114   1.084       .  S
C115        C116   1.405       .  A
C115        C120   1.406       .  A
C115        C405   1.489       .  S
C116        C117   1.405       .  A
C116        H121   1.083       .  S
C117        C118   1.405       .  A
C118        C119   1.406       .  A
C118        H122   1.083       .  S
C119        C120   1.406       .  A
C119        C159   1.483       .  S
C120        H123   1.083       .  S
C124        C125   1.403       .  A
C124        C129   1.403       .  A
C124        C414   1.483       .  S
C125        C126   1.405       .  A
C125        H130   1.084       .  S
C126        C127   1.406       .  A
C126        C145   1.482       .  S
C127        C128   1.406       .  A
C127        H131   1.083       .  S
C128        C129   1.406       .  A
C129        H132   1.084       .  S
O133       Cu141   2.000       .  S
O133        C143   1.277       .  A
O134       Cu681   1.999       .  S
O134        C144   1.278       .  A
O135       Cu141   2.008       .  S
O135        C145   1.278       .  A
O136       Cu141   2.007       .  S
O136        C146   1.278       .  A
O137       Cu142   2.007       .  S
O137        C146   1.279       .  A
O138       Cu142   2.008       .  S
O138        C145   1.278       .  A
O139       Cu142   2.006       .  S
O139        C684   1.278       .  A
O140       Cu142   2.007       .  S
O140        C143   1.279       .  A
Cu141       O674   1.999       .  S
Cu141      Cu142   2.371       .  S
C144        O679   1.278       .  A
C146        C591   1.481       .  S
O147       Cu155   2.003       .  S
O147        C157   1.278       .  A
O148      Cu1235   2.003   1_455  S
O148        C158   1.277       .  A
O149      Cu1235   2.012   1_455  S
O149        C159   1.279       .  A
O150       Cu155   2.014       .  S
O150        C160   1.279       .  A
O151       Cu156   2.007   1_655  S
O151       C1240   1.278       .  A
O152       Cu156   2.007       .  S
O152        C159   1.278       .  A
O153       Cu156   2.005       .  S
O153        C158   1.279       .  A
O154       Cu156   2.007   1_655  S
O154       C1237   1.278       .  A
Cu155      O1228   2.003       .  S
Cu155      O1229   2.012       .  S
Cu155     Cu1236   2.370       .  S
Cu156     Cu1235   2.370   1_455  S
C157        C195   1.480       .  S
C157       O1234   1.278       .  A
C160        C165   1.484       .  S
C160       O1231   1.278       .  A
C161        C162   1.403       .  A
C161        C166   1.403       .  A
C161        C377   1.483       .  S
C162        C163   1.407       .  A
C162        H167   1.084       .  S
C163        C164   1.407       .  A
C164        C165   1.405       .  A
C164        H168   1.083       .  S
C165        C166   1.406       .  A
C166       H1249   1.084       .  S
H169       C1246   1.084       .  S
C170        C171   1.405       .  A
C170        C175   1.404       .  A
C170        C386   1.486       .  S
C171        C172   1.406       .  A
C171        H176   1.083       .  S
C172        C173   1.405       .  A
C172       C1123   1.483       .  S
C173        C174   1.405       .  A
C173        H177   1.083       .  S
C174        C175   1.406       .  A
C174        C191   1.482       .  S
C175        H178   1.084       .  S
O179       Cu187   2.001       .  S
O179        C189   1.278       .  A
O180       Cu187   2.001       .  S
O180        C190   1.277       .  A
O181       Cu187   2.008       .  S
O181        C191   1.278       .  A
O182       Cu187   2.007       .  S
O182        C192   1.279       .  A
O183       Cu188   2.008       .  S
O183        C192   1.278       .  A
O184       Cu188   2.007       .  S
O184        C191   1.279       .  A
O185       Cu188   2.006       .  S
O185        C190   1.279       .  A
O186       Cu188   2.008       .  S
O186        C189   1.278       .  A
Cu187      Cu188   2.370       .  S
C190        C744   1.479       .  S
C193        C194   1.403       .  A
C193        C198   1.401       .  A
C193        C358   1.479       .  S
C194        C195   1.404       .  A
C194       H1279   1.084       .  S
C195        C196   1.404       .  A
C196        C197   1.405       .  A
C196        H200   1.083       .  S
C197        C198   1.404       .  A
C197        C255   1.478       .  S
C198        H741   1.084       .  S
H199       C1274   1.084       .  S
H201        C738   1.084       .  S
C202        C203   1.403       .  A
C202        C207   1.406       .  A
C202        C349   1.485       .  S
C203        C204   1.405       .  A
C203        H748   1.084   1_545  S
C204        C205   1.403       .  A
C204        C730   1.479   1_545  S
C205        C206   1.404       .  A
C205        H209   1.083       .  S
C206        C207   1.405       .  A
C206       C1365   1.481       .  S
C207       H1290   1.083       .  S
H208        C743   1.084       .  S
H210       C1287   1.083       .  S
O211       Cu219   2.008       .  S
O211        C221   1.278       .  A
O212       Cu219   2.010       .  S
O212        C222   1.279       .  A
O213      Cu1299   2.005       .  S
O213        C223   1.279   1_655  A
O214       Cu219   2.005       .  S
O214        C224   1.278       .  A
O215       Cu220   2.001       .  S
O215        C224   1.278       .  A
O216       Cu220   2.002       .  S
O216       C1303   1.277       .  A
O217       Cu220   2.010       .  S
O217        C222   1.278       .  A
O218       Cu220   2.010       .  S
O218        C221   1.279       .  A
Cu219      O1293   2.005       .  S
Cu219      Cu220   2.370       .  S
C221       C1147   1.482       .  S
C222        C236   1.484       .  S
C223       O1296   1.277   1_455  A
C225        C226   1.402       .  A
C225        C230   1.403       .  A
C225        C330   1.481       .  S
C226        C227   1.405       .  A
C226        H231   1.084       .  S
C227        C228   1.405       .  A
C228        C229   1.407       .  A
C228        H232   1.083       .  S
C229        C230   1.406       .  A
C229        C253   1.481       .  S
C230        H233   1.084       .  S
C234        C235   1.403       .  A
C234        C239   1.402       .  A
C234        C321   1.482       .  S
C235        C236   1.406       .  A
C235        H240   1.083       .  S
C236        C237   1.407       .  A
C237        C238   1.407       .  A
C237        H241   1.083       .  S
C238        C239   1.404       .  A
C239        H242   1.084       .  S
O243       Cu791   2.011       .  S
O243        C253   1.279       .  A
O244       Cu251   2.012       .  S
O244        C254   1.279       .  A
O245       Cu251   2.001       .  S
O245        C255   1.278       .  A
O246       Cu791   2.000       .  S
O246        C256   1.277       .  A
O247       Cu252   2.003       .  S
O247        C256   1.278       .  A
O248       Cu252   2.002       .  S
O248        C795   1.277       .  A
O249       Cu252   2.006       .  S
O249        C794   1.278       .  A
O250       Cu252   2.005       .  S
O250        C253   1.278       .  A
Cu251       O783   2.011   1_545  S
Cu251       O786   2.000   1_545  S
Cu251      Cu792   2.371   1_545  S
Cu252      Cu791   2.371       .  S
C254        C259   1.482       .  S
C254        O789   1.278       .  A
C255        O788   1.277   1_545  A
C257        C258   1.405       .  A
C257        C262   1.404       .  A
C257        C302   1.488       .  S
C258        C259   1.406       .  A
C258        H803   1.083       .  S
C259        C260   1.404       .  A
C260        C261   1.406       .  A
C260        H264   1.083       .  S
C261        C262   1.405       .  A
C262        H265   1.083       .  S
H263        C798   1.083       .  S
C266        C267   1.400       .  A
C266        C271   1.404       .  A
C266        C293   1.478       .  S
C267        C268   1.404       .  A
C267        H272   1.084       .  S
C268        C269   1.407       .  A
C268        C585   1.481   1_545  S
C269        C270   1.407       .  A
C269        H273   1.083       .  S
C270        C271   1.406       .  A
C270        C288   1.485       .  S
C271        H274   1.083       .  S
O275       Cu283   2.003       .  S
O275        C285   1.278       .  A
O276       Cu283   2.001       .  S
O276        C286   1.277       .  A
O277       Cu283   2.010       .  S
O277        C287   1.278       .  A
O278       Cu283   2.011       .  S
O278        C288   1.279       .  A
O279       Cu284   2.014       .  S
O279        C288   1.279       .  A
O280       Cu284   2.012       .  S
O280        C287   1.279       .  A
O281       Cu284   2.006       .  S
O281        C286   1.279       .  A
O282       Cu284   2.010       .  S
O282        C285   1.278       .  A
Cu283      Cu284   2.370       .  S
C285       C1286   1.481   1_455  S
C289        C290   1.402       .  A
C289        C294   1.395       .  A
C289        H839   1.084       .  S
C290        C291   1.418       .  A
C290        C295   1.483       .  S
C291        C292   1.408       .  A
C291        N296   1.438       .  S
C292        C293   1.402       .  A
C292        H297   1.083       .  S
C293        C294   1.405       .  A
C294        N838   1.426       .  S
C295        C300   1.411       .  A
C295        C304   1.401       .  A
N296        O311   1.263       .  A
N296        O312   1.263       .  A
N298        C834   1.426       .  S
N298        O309   1.262       .  A
N298        O310   1.260       .  A
H299        C829   1.084       .  S
C300        C301   1.401       .  A
C300        N845   1.436       .  S
C301        C302   1.405       .  A
C301        H846   1.084       .  S
C302        C303   1.420       .  A
C303        C304   1.404       .  A
C303        N307   1.438       .  S
C304        H308   1.084       .  S
N305        C840   1.436       .  S
N305        O315   1.262       .  A
N305        O316   1.263       .  A
H306        C841   1.084       .  S
N307        O313   1.263       .  A
N307        O314   1.263       .  A
C317        C318   1.402       .  A
C317        C322   1.401       .  A
C317        H327   1.085       .  S
C318        C319   1.414       .  A
C318        C323   1.481       .  S
C319        C320   1.404       .  A
C319        N324   1.438       .  S
C320        C321   1.404       .  A
C320        H325   1.085       .  S
C321        C322   1.416       .  A
C322        N326   1.438       .  S
C323        C328   1.414       .  A
C323        C332   1.403       .  A
N324        O339   1.263       .  A
N324        O340   1.263       .  A
N326        O337   1.263       .  A
N326        O338   1.263       .  A
C328        C329   1.402       .  A
C328        N333   1.439       .  S
C329        C330   1.402       .  A
C329        H334   1.085       .  S
C330        C331   1.416       .  A
C331        C332   1.404       .  A
C331        N335   1.438       .  S
C332        H336   1.085       .  S
N333        O343   1.263       .  A
N333        O344   1.263       .  A
N335        O341   1.263       .  A
N335        O882   1.263       .  A
O342        N875   1.263       .  A
C345        C346   1.397       .  A
C345        C350   1.397       .  A
C345       H1435   1.085       .  S
C346        C347   1.415       .  A
C346        C351   1.478       .  S
C347        C348   1.407       .  A
C347        N352   1.440       .  S
C348        C349   1.405       .  A
C348        H353   1.084       .  S
C349        C350   1.413       .  A
C350       N1434   1.431       .  S
C351        C356   1.411       .  A
C351        C360   1.403       .  A
N352        O367   1.262       .  A
N352        O368   1.262       .  A
N354       C1430   1.431   1_455  S
N354        O365   1.262       .  A
N354        O366   1.263       .  A
H355       C1425   1.085       .  S
C356        C357   1.401       .  A
C356       N1441   1.437       .  S
C357        C358   1.403       .  A
C357       H1442   1.084       .  S
C358        C359   1.415       .  A
C359        C360   1.404       .  A
C359        N903   1.439       .  S
C360        H364   1.084       .  S
N361       C1436   1.437       .  S
N361        O371   1.262       .  A
N361        O372   1.261       .  A
H362       C1437   1.084       .  S
N363        C899   1.439       .  S
N363        O369   1.263       .  A
N363        O370   1.263       .  A
C373        C374   1.404       .  A
C373        C378   1.406       .  A
C373        H383   1.085       .  S
C374        C375   1.410       .  A
C374        C379   1.484       .  S
C375        C376   1.400       .  A
C375        N380   1.432       .  S
C376        C377   1.403       .  A
C376        H381   1.085       .  S
C377        C378   1.414       .  A
C378        N382   1.434       .  S
C379        C384   1.413       .  A
C379        C388   1.403       .  A
N380        O395   1.261       .  A
N380        O396   1.262       .  A
N382        O393   1.262       .  A
N382        O394   1.262       .  A
C384        C385   1.404       .  A
C384        N389   1.438       .  S
C385        C386   1.406       .  A
C385        H390   1.085       .  S
C386        C387   1.416       .  A
C387        C388   1.404       .  A
C387        N391   1.438       .  S
C388        H392   1.085       .  S
N389       O1479   1.263       .  A
N389       O1480   1.263       .  A
N391        O397   1.263       .  A
N391        O398   1.263       .  A
O399       N1469   1.263       .  A
O400       N1469   1.263       .  A
C401        C402   1.400       .  A
C401        C406   1.403       .  A
C401        H411   1.085       .  S
C402        C403   1.412       .  A
C402        C407   1.479       .  S
C403        C404   1.403       .  A
C403       N1488   1.437       .  S
C404        C405   1.406       .  A
C404       H1489   1.084       .  S
C405        C406   1.419       .  A
C406        N410   1.438       .  S
C407        C412   1.413       .  A
C407        C416   1.401       .  A
N408       C1483   1.437       .  S
N408        O423   1.262       .  A
N408        O424   1.263       .  A
H409       C1484   1.084       .  S
N410        O421   1.263       .  A
N410        O422   1.263       .  A
C412        C413   1.404       .  A
C412        N417   1.439       .  S
C413        C414   1.404       .  A
C413        H418   1.084       .  S
C414        C415   1.417       .  A
C415        C416   1.404       .  A
C415        N419   1.439       .  S
C416        H420   1.084       .  S
N417        O427   1.263       .  A
N417        O428   1.262       .  A
N419        O425   1.263       .  A
N419       O1506   1.263       .  A
O426       N1499   1.263       .  A
C429        C430   1.403       .  A
C429        C434   1.404       .  A
C429        H439   1.085       .  S
C430        C431   1.413       .  A
C430        C435   1.480       .  S
C431        C432   1.400       .  A
C431        N436   1.439       .  S
C432        C433   1.403       .  A
C432        H437   1.085       .  S
C433        C434   1.414       .  A
C434        N438   1.437       .  S
C435        C440   1.413       .  A
C435        C444   1.403       .  A
N436       O1531   1.263       .  A
N436       O1532   1.263       .  A
N438        O449   1.263       .  A
N438        O450   1.263       .  A
C440        C441   1.402       .  A
C440        N445   1.438       .  S
C441        C442   1.405       .  A
C441        H446   1.085       .  S
C442        C443   1.414       .  A
C443        C444   1.403       .  A
C443        N447   1.437       .  S
C444        H448   1.085       .  S
N445        O455   1.263       .  A
N445        O456   1.262       .  A
N447        O453   1.263       .  A
N447        O994   1.262       .  A
O451       N1516   1.263       .  A
O452       N1516   1.263       .  A
O454        N987   1.262       .  A
C457        C458   1.401       .  A
C457        C462   1.403       .  A
C457        H467   1.084       .  S
C458       C1539   1.414   1_455  A
C458        C463   1.480       .  S
C459        C460   1.405       .  A
C459       C1538   1.414       .  A
C459        N464   1.440       .  S
C460       C1541   1.404       .  A
C460        H465   1.084       .  S
C461        C462   1.417       .  A
C461       C1540   1.404   1_455  A
C462        N466   1.438       .  S
C463        C468   1.406       .  A
C463       C1552   1.401   1_455  A
N464        O479   1.263       .  A
N464        O480   1.263       .  A
N466        O477   1.262       .  A
N466        O478   1.263       .  A
C468        C469   1.399   1_556  A
C468        N473   1.429       .  S
C469        C470   1.405   1_455  A
C469        H474   1.085       .  S
C470       C1551   1.419       .  A
C471        C472   1.405   1_554  A
C471       C1550   1.419       .  A
C471        N475   1.439       .  S
C472       C1543   1.401       .  A
C472        H476   1.084       .  S
N473        O483   1.262       .  A
N473        O484   1.262       .  A
N475        O481   1.263       .  A
N475        O482   1.263       .  A
C485        C486   1.401       .  A
C485        C490   1.402   1_556  A
C485        H495   1.085       .  S
C486        C487   1.414       .  A
C486        C491   1.479       .  S
C487        C488   1.405   1_556  A
C487        N492   1.441       .  S
C488        C489   1.405       .  A
C488        H493   1.085       .  S
C489        C490   1.417       .  A
C490       N1034   1.438       .  S
C491        C496   1.412       .  A
C491       C1040   1.402       .  A
N492        O507   1.262       .  A
N492        O508   1.263   1_556  A
N494       C1030   1.438       .  S
N494        O505   1.263       .  A
N494        O506   1.263       .  A
C496        C497   1.403       .  A
C496        N501   1.439       .  S
C497        C498   1.405       .  A
C497        H502   1.083       .  S
C498       C1039   1.416       .  A
C499        C500   1.405       .  A
C499       C1038   1.416   1_545  A
C499        N503   1.440       .  S
C500       C1031   1.402   1_545  A
C500        H504   1.083       .  S
N501        O511   1.263       .  A
N501        O512   1.262       .  A
N503        O509   1.263       .  A
N503        O510   1.263       .  A
C513        C514   1.403       .  A
C513        C518   1.403   1_556  A
C513        H523   1.085       .  S
C514        C515   1.412       .  A
C514        C519   1.480       .  S
C515        C516   1.401   1_556  A
C515        N520   1.436       .  S
C516        C517   1.404       .  A
C516        H521   1.086       .  S
C517        C518   1.413       .  A
C518        N522   1.437       .  S
C519        C524   1.413       .  A
C519        C528   1.403       .  A
N520        O535   1.262       .  A
N520        O536   1.262       .  A
N522        O533   1.262       .  A
N522        O534   1.263       .  A
C524        C525   1.401       .  A
C524        N529   1.439       .  S
C525        C526   1.404       .  A
C525        H530   1.085       .  S
C526        C527   1.415       .  A
C527        C528   1.404       .  A
C527        N531   1.438       .  S
C528        H532   1.085       .  S
N529        O539   1.263       .  A
N529        O540   1.263       .  A
N531        O537   1.263       .  A
N531        O538   1.263       .  A
C541        C542   1.402       .  A
C541        C546   1.402       .  A
C541       C1057   1.479       .  S
C542        C543   1.404       .  A
C542        H547   1.084       .  S
C543        C544   1.403       .  A
C543        C683   1.479       .  S
C544        C545   1.405       .  A
C544        H548   1.083       .  S
C545        C546   1.406       .  A
C545        C764   1.479       .  S
C546        H549   1.084       .  S
C550        C551   1.404       .  A
C550        C555   1.403       .  A
C550       C1066   1.482       .  S
C551        C552   1.406       .  A
C551        H556   1.084       .  S
C552        C553   1.405       .  A
C552        C729   1.480       .  S
C553        C554   1.403       .  A
C553        H557   1.083       .  S
C554        C555   1.404       .  A
C554        C826   1.479       .  S
C555        H558   1.084       .  S
O559       Cu567   2.003       .  S
O559        C569   1.278       .  A
O560       Cu567   2.005       .  S
O560        C570   1.278       .  A
O561       Cu567   2.008       .  S
O561        C571   1.279       .  A
O562       Cu567   2.005       .  S
O562        C572   1.278       .  A
O563       Cu568   2.011       .  S
O563        C572   1.279       .  A
O564       Cu568   2.011       .  S
O564        C571   1.278       .  A
O565       Cu568   2.010       .  S
O565        C570   1.279       .  A
O566       Cu568   2.009       .  S
O566        C569   1.278       .  A
Cu567      Cu568   2.370       .  S
C569        C801   1.480       .  S
C570        C767   1.481       .  S
C571        C703   1.483       .  S
C572        C657   1.482       .  S
O573       Cu581   2.009       .  S
O573        C583   1.279       .  A
O574       Cu581   2.009       .  S
O574        C584   1.278       .  A
O575       Cu581   2.006       .  S
O575        C585   1.278       .  A
O576       Cu581   2.005       .  S
O576        C586   1.278       .  A
O577       Cu582   2.010       .  S
O577        C586   1.279       .  A
O578       Cu582   2.008       .  S
O578        C585   1.279       .  A
O579       Cu582   2.005       .  S
O579        C584   1.278       .  A
O580       Cu582   2.009       .  S
O580        C583   1.278       .  A
Cu581      Cu582   2.370       .  S
C583       C1792   1.483   1_455  S
C584        C600   1.481       .  S
C586        C616   1.482       .  S
C587        C588   1.404       .  A
C587        C592   1.404       .  A
C587       C1029   1.486       .  S
C588        C589   1.405       .  A
C588        H593   1.083       .  S
C590        H594   1.083       .  S
C591        C592   1.405       .  A
C592        H595   1.084       .  S
C596        C597   1.404       .  A
C596        C601   1.403       .  A
C596       C1038   1.483       .  S
C597        C598   1.406       .  A
C597        H602   1.083       .  S
C598        C599   1.405       .  A
C598        C732   1.482       .  S
C599        C600   1.405       .  A
C599        H603   1.083       .  S
C600        C601   1.405       .  A
C601        H604   1.084       .  S
C605        C606   1.403       .  A
C605        C610   1.403       .  A
C605       C1010   1.484       .  S
C606        C607   1.406       .  A
C606        H611   1.084       .  S
C607       C1688   1.407       .  A
C607       C1841   1.482       .  S
C608       C1687   1.407       .  A
C608       C1689   1.406       .  A
C608        H612   1.083       .  S
C609       C1688   1.406       .  A
C609        C610   1.406       .  A
C609       C1714   1.483       .  S
C610        H613   1.084       .  S
C614        C615   1.402       .  A
C614        C619   1.403       .  A
C614       C1001   1.484       .  S
C615        C616   1.405       .  A
C615        H620   1.084       .  S
C616        C617   1.407       .  A
C617        C618   1.407       .  A
C617        H621   1.083       .  S
C618        C619   1.407       .  A
C618        C827   1.484       .  S
C619        H622   1.084       .  S
O623        C633   1.278       .  A
O624       Cu631   2.006       .  S
O624        C634   1.278       .  A
O625      Cu1711   2.009       .  S
O625        C635   1.279   1_655  A
O626       Cu631   2.008       .  S
O626        C636   1.278       .  A
O627       Cu632   2.006       .  S
O627        C636   1.278       .  A
O628       Cu632   2.008       .  S
O628       C1715   1.278       .  A
O629       Cu632   2.011       .  S
O629        C634   1.279       .  A
O630       Cu632   2.008       .  S
Cu631      O1705   2.009       .  S
Cu631      Cu632   2.370       .  S
C633        C778   1.482   1_545  S
C634       C1689   1.483       .  S
C635        C668   1.483       .  S
C635       O1708   1.278   1_455  A
C637        C638   1.402       .  A
C637        C642   1.403       .  A
C637        C982   1.481       .  S
C638        C639   1.405       .  A
C638        H643   1.084       .  S
C639        C640   1.404       .  A
C639        C796   1.478       .  S
C640        C641   1.403       .  A
C640        H644   1.083       .  S
C641        C642   1.405       .  A
C641        C698   1.479       .  S
C642        H645   1.084       .  S
C646        C647   1.403       .  A
C646        C651   1.403       .  A
C646        C973   1.480       .  S
C647        C648   1.404       .  A
C647        H652   1.084       .  S
C648        C649   1.403       .  A
C648        C763   1.479       .  S
C649        C650   1.404       .  A
C649        H653   1.083       .  S
C650        C651   1.405       .  A
C650        C684   1.478   1_565  S
C651        H654   1.084       .  S
C655        C656   1.405       .  A
C655        C660   1.406       .  A
C655        C945   1.489       .  S
C656        C657   1.405       .  A
C656        H661   1.083       .  S
C657        C658   1.405       .  A
C658        C659   1.406       .  A
C658        H662   1.083       .  S
C659        C660   1.406       .  A
C659        C699   1.483       .  S
C660        H663   1.083       .  S
C664        C665   1.403       .  A
C664        C669   1.403       .  A
C664        C954   1.483       .  S
C665        C666   1.405       .  A
C665        H670   1.084       .  S
C666        C667   1.406       .  A
C666        C685   1.482       .  S
C667        C668   1.406       .  A
C667        H671   1.083       .  S
C668        C669   1.406       .  A
C669        H672   1.084       .  S
O673       Cu681   2.000       .  S
O673        C683   1.277       .  A
O674        C684   1.278       .  A
O675       Cu681   2.008       .  S
O675        C685   1.278       .  A
O676       Cu681   2.007       .  S
O676        C686   1.278       .  A
O677       Cu682   2.007       .  S
O677        C686   1.279       .  A
O678       Cu682   2.008       .  S
O678        C685   1.278       .  A
O679       Cu682   2.006       .  S
O680       Cu682   2.007       .  S
O680        C683   1.279       .  A
Cu681      Cu682   2.371       .  S
O687       Cu695   2.003       .  S
O687        C697   1.278       .  A
O688      Cu1775   2.003   1_455  S
O688        C698   1.277       .  A
O689      Cu1775   2.012   1_455  S
O689        C699   1.279       .  A
O690       Cu695   2.014       .  S
O690        C700   1.279       .  A
O691       Cu696   2.007   1_655  S
O691       C1780   1.278       .  A
O692       Cu696   2.007       .  S
O692        C699   1.278       .  A
O693       Cu696   2.005       .  S
O693        C698   1.279       .  A
O694       Cu696   2.007   1_655  S
O694       C1777   1.278       .  A
Cu695      O1768   2.003       .  S
Cu695      O1769   2.012       .  S
Cu695     Cu1776   2.370       .  S
Cu696     Cu1775   2.370   1_455  S
C697        C735   1.480       .  S
C697       O1774   1.278       .  A
C700        C705   1.484       .  S
C700       O1771   1.278       .  A
C701        C702   1.403       .  A
C701        C706   1.403       .  A
C701        C917   1.482       .  S
C702        C703   1.407       .  A
C702        H707   1.084       .  S
C703        C704   1.407       .  A
C704        C705   1.405       .  A
C704        H708   1.083       .  S
C705        C706   1.406       .  A
C706       H1789   1.084       .  S
H709       C1786   1.084       .  S
C710        C711   1.405       .  A
C710        C715   1.404       .  A
C710        C926   1.486       .  S
C711        C712   1.406       .  A
C711        H716   1.083       .  S
C712        C713   1.405       .  A
C712       C1663   1.483       .  S
C713        C714   1.405       .  A
C713        H717   1.083       .  S
C714        C715   1.406       .  A
C714        C731   1.482       .  S
C715        H718   1.084       .  S
O719       Cu727   2.001       .  S
O719        C729   1.278       .  A
O720       Cu727   2.000       .  S
O720        C730   1.277       .  A
O721       Cu727   2.008       .  S
O721        C731   1.278       .  A
O722       Cu727   2.007       .  S
O722        C732   1.279       .  A
O723       Cu728   2.008       .  S
O723        C732   1.278       .  A
O724       Cu728   2.007       .  S
O724        C731   1.279       .  A
O725       Cu728   2.006       .  S
O725        C730   1.279       .  A
O726       Cu728   2.009       .  S
O726        C729   1.278       .  A
Cu727      Cu728   2.370       .  S
C733        C734   1.403       .  A
C733        C738   1.401       .  A
C733        C898   1.480       .  S
C734        C735   1.404       .  A
C734       H1819   1.084       .  S
C735        C736   1.404       .  A
C736        C737   1.405       .  A
C736        H740   1.083       .  S
C737        C738   1.404       .  A
C737        C795   1.478       .  S
H739       C1814   1.084       .  S
C742        C743   1.403       .  A
C742        C747   1.406       .  A
C742        C889   1.485       .  S
C743        C744   1.405       .  A
C744        C745   1.403       .  A
C745        C746   1.404       .  A
C745        H749   1.083       .  S
C746        C747   1.405       .  A
C746       C1905   1.481       .  S
C747       H1830   1.083       .  S
H750       C1827   1.083       .  S
O751       Cu759   2.008       .  S
O751        C761   1.278       .  A
O752       Cu759   2.010       .  S
O752        C762   1.279       .  A
O753      Cu1839   2.005       .  S
O753        C763   1.279   1_655  A
O754       Cu759   2.005       .  S
O754        C764   1.278       .  A
O755       Cu760   2.001       .  S
O755        C764   1.278       .  A
O756       Cu760   2.002       .  S
O756       C1843   1.277       .  A
O757       Cu760   2.010       .  S
O757        C762   1.278       .  A
O758       Cu760   2.010       .  S
O758        C761   1.279       .  A
Cu759      O1833   2.005       .  S
Cu759      Cu760   2.370       .  S
C761       C1687   1.482       .  S
C762        C776   1.484       .  S
C763       O1836   1.277   1_455  A
C765        C766   1.402       .  A
C765        C770   1.403       .  A
C765        C870   1.480       .  S
C766        C767   1.405       .  A
C766        H771   1.084       .  S
C767        C768   1.405       .  A
C768        C769   1.407       .  A
C768        H772   1.083       .  S
C769        C770   1.406       .  A
C769        C793   1.481       .  S
C770        H773   1.084       .  S
C774        C775   1.403       .  A
C774        C779   1.402       .  A
C774        C861   1.482       .  S
C775        C776   1.406       .  A
C775        H780   1.083       .  S
C776        C777   1.407       .  A
C777        C778   1.407       .  A
C777        H781   1.083       .  S
C778        C779   1.404       .  A
C779        H782   1.084       .  S
O783        C793   1.279       .  A
O784       Cu791   2.012       .  S
O784        C794   1.279       .  A
O785       Cu791   2.001       .  S
O785        C795   1.278       .  A
O786        C796   1.277       .  A
O787       Cu792   2.003       .  S
O787        C796   1.278       .  A
O788       Cu792   2.002       .  S
O789       Cu792   2.006   1_545  S
O790       Cu792   2.005       .  S
O790        C793   1.278       .  A
C794        C799   1.482       .  S
C797        C798   1.405       .  A
C797        C802   1.404       .  A
C797        C842   1.488       .  S
C798        C799   1.406       .  A
C799        C800   1.404       .  A
C800        C801   1.406       .  A
C800        H804   1.083       .  S
C801        C802   1.405       .  A
C802        H805   1.083       .  S
C806        C807   1.400       .  A
C806        C811   1.404       .  A
C806        C833   1.478       .  S
C807        C808   1.404       .  A
C807        H812   1.084       .  S
C808        C809   1.407       .  A
C809        C810   1.407       .  A
C809        H813   1.083       .  S
C810        C811   1.406       .  A
C810        C828   1.485       .  S
C811        H814   1.083       .  S
O815       Cu823   2.003       .  S
O815        C825   1.278       .  A
O816       Cu823   2.001       .  S
O816        C826   1.277       .  A
O817       Cu823   2.010       .  S
O817        C827   1.278       .  A
O818       Cu823   2.011       .  S
O818        C828   1.279       .  A
O819       Cu824   2.013       .  S
O819        C828   1.279       .  A
O820       Cu824   2.012       .  S
O820        C827   1.279       .  A
O821       Cu824   2.006       .  S
O821        C826   1.279       .  A
O822       Cu824   2.010       .  S
O822        C825   1.278       .  A
Cu823      Cu824   2.370       .  S
C825       C1826   1.481   1_455  S
C829        C830   1.402       .  A
C829        C834   1.395       .  A
C830        C831   1.418       .  A
C830        C835   1.483       .  S
C831        C832   1.408       .  A
C831        N836   1.438       .  S
C832        C833   1.402       .  A
C832        H837   1.083       .  S
C833        C834   1.405       .  A
C835        C840   1.411       .  A
C835        C844   1.401       .  A
N836        O851   1.263       .  A
N836        O852   1.263       .  A
N838        O849   1.262       .  A
N838        O850   1.260       .  A
C840        C841   1.401       .  A
C841        C842   1.405       .  A
C842        C843   1.420       .  A
C843        C844   1.404       .  A
C843        N847   1.438       .  S
C844        H848   1.084       .  S
N845        O855   1.262   1_545  A
N845        O856   1.263   1_545  A
N847        O853   1.263       .  A
N847        O854   1.263       .  A
C857        C858   1.402       .  A
C857        C862   1.401       .  A
C857        H867   1.085       .  S
C858        C859   1.414       .  A
C858        C863   1.481       .  S
C859        C860   1.404       .  A
C859        N864   1.438       .  S
C860        C861   1.404       .  A
C860        H865   1.085       .  S
C861        C862   1.416       .  A
C862        N866   1.438       .  S
C863        C868   1.414       .  A
C863        C872   1.403       .  A
N864        O879   1.263       .  A
N864        O880   1.263       .  A
N866        O877   1.263       .  A
N866        O878   1.263   1_565  A
C868        C869   1.402       .  A
C868        N873   1.439       .  S
C869        C870   1.402       .  A
C869        H874   1.085       .  S
C870        C871   1.416       .  A
C871        C872   1.404       .  A
C871        N875   1.438       .  S
C872        H876   1.085       .  S
N873        O883   1.263       .  A
N873        O884   1.263       .  A
N875        O881   1.263       .  A
C885        C886   1.397       .  A
C885        C890   1.397       .  A
C885       H1975   1.085       .  S
C886        C887   1.415       .  A
C886        C891   1.478       .  S
C887        C888   1.407       .  A
C887        N892   1.440       .  S
C888        C889   1.405       .  A
C888        H893   1.084       .  S
C889        C890   1.413       .  A
C890       N1974   1.431       .  S
C891        C896   1.411       .  A
C891        C900   1.403       .  A
N892        O907   1.262       .  A
N892        O908   1.262       .  A
N894       C1970   1.431   1_455  S
N894        O905   1.262       .  A
N894        O906   1.263       .  A
H895       C1965   1.085       .  S
C896        C897   1.401       .  A
C896       N1981   1.437       .  S
C897        C898   1.403       .  A
C897       H1982   1.084       .  S
C898        C899   1.415       .  A
C899        C900   1.404       .  A
C900        H904   1.084       .  S
N901       C1976   1.437       .  S
N901        O911   1.262       .  A
N901        O912   1.261       .  A
H902       C1977   1.084       .  S
N903        O909   1.263       .  A
N903        O910   1.263   1_545  A
C913        C914   1.404       .  A
C913        C918   1.406       .  A
C913        H923   1.085       .  S
C914        C915   1.410       .  A
C914        C919   1.484       .  S
C915        C916   1.400       .  A
C915        N920   1.432       .  S
C916        C917   1.403       .  A
C916        H921   1.085       .  S
C917        C918   1.413       .  A
C918        N922   1.434       .  S
C919        C924   1.413       .  A
C919        C928   1.403       .  A
N920        O935   1.261       .  A
N920        O936   1.262       .  A
N922        O933   1.262       .  A
N922        O934   1.262       .  A
C924        C925   1.404       .  A
C924        N929   1.438       .  S
C925        C926   1.406       .  A
C925        H930   1.085       .  S
C926        C927   1.416       .  A
C927        C928   1.404       .  A
C927        N931   1.438       .  S
C928        H932   1.085       .  S
N929       O2019   1.263       .  A
N929       O2020   1.263       .  A
N931        O937   1.263       .  A
N931        O938   1.263       .  A
O939       N2009   1.263       .  A
O940       N2009   1.263       .  A
C941        C942   1.400       .  A
C941        C946   1.403       .  A
C941        H951   1.085       .  S
C942        C943   1.412       .  A
C942        C947   1.479       .  S
C943        C944   1.403       .  A
C943       N2028   1.437       .  S
C944        C945   1.406       .  A
C944       H2029   1.084       .  S
C945        C946   1.419       .  A
C946        N950   1.438       .  S
C947        C952   1.413       .  A
C947        C956   1.401       .  A
N948       C2023   1.437       .  S
N948        O963   1.262       .  A
N948        O964   1.263       .  A
H949       C2024   1.084       .  S
N950        O961   1.263       .  A
N950        O962   1.263       .  A
C952        C953   1.404       .  A
C952        N957   1.439       .  S
C953        C954   1.404       .  A
C953        H958   1.084       .  S
C954        C955   1.417       .  A
C955        C956   1.404       .  A
C955        N959   1.439       .  S
C956        H960   1.084       .  S
N957        O967   1.263       .  A
N957        O968   1.262       .  A
N959        O965   1.263       .  A
N959       O2046   1.263       .  A
O966       N2039   1.263       .  A
C969        C970   1.403       .  A
C969        C974   1.404       .  A
C969        H979   1.085       .  S
C970        C971   1.413       .  A
C970        C975   1.480       .  S
C971        C972   1.400       .  A
C971        N976   1.439       .  S
C972        C973   1.403       .  A
C972        H977   1.085       .  S
C973        C974   1.414       .  A
C974        N978   1.437       .  S
C975        C980   1.413       .  A
C975        C984   1.403       .  A
N976       O2071   1.263       .  A
N976       O2072   1.263       .  A
N978        O989   1.263       .  A
N978        O990   1.263       .  A
C980        C981   1.402       .  A
C980        N985   1.438       .  S
C981        C982   1.405       .  A
C981        H986   1.085       .  S
C982        C983   1.414       .  A
C983        C984   1.403       .  A
C983        N987   1.437       .  S
C984        H988   1.085       .  S
N985        O995   1.263       .  A
N985        O996   1.262       .  A
N987        O993   1.263       .  A
O991       N2056   1.263       .  A
O992       N2056   1.263       .  A
C997        C998   1.401       .  A
C997       C1002   1.403       .  A
C997       H1007   1.084       .  S
C998       C2079   1.414   1_455  A
C998       C1003   1.480       .  S
C999       C2078   1.414       .  A
C999       C1000   1.405       .  A
C999       N1004   1.440       .  S
C1000      C2081   1.404       .  A
C1000      H1005   1.084       .  S
C1001      C2080   1.404   1_455  A
C1001      C1002   1.417       .  A
C1002      N1006   1.438       .  S
C1003      C1008   1.406       .  A
C1003      C2092   1.401   1_455  A
N1004      O1019   1.263       .  A
N1004      O1020   1.263       .  A
N1006      O1017   1.262       .  A
N1006      O1018   1.263       .  A
C1008      C1009   1.399   1_556  A
C1008      N1013   1.429       .  S
C1009      C1010   1.405   1_455  A
C1009      H1014   1.085       .  S
C1010      C2091   1.419       .  A
C1011      C2090   1.419       .  A
C1011      C1012   1.405   1_554  A
C1011      N1015   1.439       .  S
C1012      C2083   1.401       .  A
C1012      H1016   1.084       .  S
N1013      O1023   1.262       .  A
N1013      O1024   1.262       .  A
N1015      O1021   1.263       .  A
N1015      O1022   1.263       .  A
C1025      C1026   1.401   1_545  A
C1025      C1030   1.402   1_556  A
C1025      H1035   1.085       .  S
C1026      C1027   1.414       .  A
C1026      C1031   1.479       .  S
C1027      C1028   1.405   1_556  A
C1027      N1032   1.441       .  S
C1028      C1029   1.405   1_565  A
C1028      H1033   1.085       .  S
C1029      C1030   1.417       .  A
C1031      C1036   1.412       .  A
N1032      O1047   1.262       .  A
N1032      O1048   1.263   1_556  A
N1034      O1045   1.263       .  A
N1034      O1046   1.263       .  A
C1036      C1037   1.403       .  A
C1036      N1041   1.439       .  S
C1037      C1038   1.405       .  A
C1037      H1042   1.083       .  S
C1039      C1040   1.405       .  A
C1039      N1043   1.440       .  S
C1040      H1044   1.083       .  S
N1041      O1051   1.263       .  A
N1041      O1052   1.262       .  A
N1043      O1049   1.263       .  A
N1043      O1050   1.263       .  A
C1053      C1054   1.403       .  A
C1053      C1058   1.403   1_556  A
C1053      H1063   1.085       .  S
C1054      C1055   1.412       .  A
C1054      C1059   1.480       .  S
C1055      C1056   1.401   1_556  A
C1055      N1060   1.436       .  S
C1056      C1057   1.404       .  A
C1056      H1061   1.086       .  S
C1057      C1058   1.413       .  A
C1058      N1062   1.437       .  S
C1059      C1064   1.413       .  A
C1059      C1068   1.403       .  A
N1060      O1075   1.262       .  A
N1060      O1076   1.262       .  A
N1062      O1073   1.262       .  A
N1062      O1074   1.263       .  A
C1064      C1065   1.401       .  A
C1064      N1069   1.439       .  S
C1065      C1066   1.404       .  A
C1065      H1070   1.085       .  S
C1066      C1067   1.415       .  A
C1067      C1068   1.404       .  A
C1067      N1071   1.438       .  S
C1068      H1072   1.085       .  S
N1069      O1079   1.263       .  A
N1069      O1080   1.263       .  A
N1071      O1077   1.263       .  A
N1071      O1078   1.263       .  A
C1081      C1082   1.402       .  A
C1081      C1086   1.402       .  A
C1081      C1597   1.479       .  S
C1082      C1083   1.404       .  A
C1082      H1087   1.084       .  S
C1083      C1084   1.403       .  A
C1083      C1223   1.479       .  S
C1084      C1085   1.405       .  A
C1084      H1088   1.083       .  S
C1085      C1086   1.406       .  A
C1085      C1304   1.479       .  S
C1086      H1089   1.084       .  S
C1090      C1091   1.404       .  A
C1090      C1095   1.403       .  A
C1090      C1606   1.482       .  S
C1091      C1092   1.406       .  A
C1091      H1096   1.084       .  S
C1092      C1093   1.405       .  A
C1092      C1269   1.480       .  S
C1093      C1094   1.403       .  A
C1093      H1097   1.083       .  S
C1094      C1095   1.404       .  A
C1094      C1366   1.479       .  S
C1095      H1098   1.084       .  S
O1099     Cu1107   2.003       .  S
O1099      C1109   1.278       .  A
O1100     Cu1107   2.005       .  S
O1100      C1110   1.278       .  A
O1101     Cu1107   2.008       .  S
O1101      C1111   1.279       .  A
O1102     Cu1107   2.005       .  S
O1102      C1112   1.278       .  A
O1103     Cu1108   2.011       .  S
O1103      C1112   1.279       .  A
O1104     Cu1108   2.011       .  S
O1104      C1111   1.278       .  A
O1105     Cu1108   2.010       .  S
O1105      C1110   1.279       .  A
O1106     Cu1108   2.009       .  S
O1106      C1109   1.278       .  A
Cu1107    Cu1108   2.370       .  S
C1109      C1341   1.480       .  S
C1110      C1307   1.481       .  S
C1111      C1243   1.483       .  S
C1112      C1197   1.482       .  S
O1113     Cu1121   2.009       .  S
O1113      C1123   1.279       .  A
O1114     Cu1121   2.009       .  S
O1114      C1124   1.278       .  A
O1115     Cu1121   2.006       .  S
O1115      C1125   1.278       .  A
O1116     Cu1121   2.005       .  S
O1116      C1126   1.278       .  A
O1117     Cu1122   2.010       .  S
O1117      C1126   1.279       .  A
O1118     Cu1122   2.008       .  S
O1118      C1125   1.279       .  A
O1119     Cu1122   2.005       .  S
O1119      C1124   1.278       .  A
O1120     Cu1122   2.009       .  S
O1120      C1123   1.278       .  A
Cu1121    Cu1122   2.370       .  S
C1124      C1140   1.481       .  S
C1125      C1888   1.481       .  S
C1126      C1156   1.482       .  S
C1127      C1128   1.404       .  A
C1127      C1132   1.404       .  A
C1127      C1569   1.486       .  S
C1128      C1129   1.405       .  A
C1128      H1133   1.083       .  S
C1129      C1670   1.405       .  A
C1129      C1716   1.481       .  S
C1130      C1669   1.405       .  A
C1130      C1671   1.405       .  A
C1130      H1134   1.083       .  S
C1131      C1670   1.405       .  A
C1131      C1132   1.405       .  A
C1131      C1766   1.481       .  S
C1132      H1135   1.084       .  S
C1136      C1137   1.404       .  A
C1136      C1141   1.403       .  A
C1136      C1578   1.483       .  S
C1137      C1138   1.406       .  A
C1137      H1142   1.083       .  S
C1138      C1139   1.405       .  A
C1138      C1272   1.482       .  S
C1139      C1140   1.405       .  A
C1139      H1143   1.083       .  S
C1140      C1141   1.405       .  A
C1141      H1144   1.084       .  S
C1145      C1146   1.403       .  A
C1145      C1150   1.403       .  A
C1145      C1550   1.484       .  S
C1146      C1147   1.406       .  A
C1146      H1151   1.084       .  S
C1148      H1152   1.083       .  S
C1149      C1150   1.406       .  A
C1150      H1153   1.084       .  S
C1154      C1155   1.402       .  A
C1154      C1159   1.403       .  A
C1154      C1541   1.484       .  S
C1155      C1156   1.405       .  A
C1155      H1160   1.084       .  S
C1156      C1157   1.407       .  A
C1157      C1158   1.407       .  A
C1157      H1161   1.083       .  S
C1158      C1159   1.407       .  A
C1158      C1367   1.484       .  S
C1159      H1162   1.084       .  S
O1163     Cu1711   2.007       .  S
O1163      C1173   1.278       .  A
O1164     Cu1171   2.006       .  S
O1164      C1174   1.278       .  A
O1165      C1175   1.279       .  A
O1166     Cu1171   2.008       .  S
O1166      C1176   1.278       .  A
O1167     Cu1172   2.006       .  S
O1167      C1176   1.278       .  A
O1168     Cu1172   2.008       .  S
O1169     Cu1172   2.011       .  S
O1169      C1174   1.279       .  A
O1170     Cu1172   2.008       .  S
O1170      C1713   1.278       .  A
Cu1171     O1703   2.007       .  S
Cu1171    Cu1172   2.370       .  S
C1173      C1318   1.482       .  S
C1173      O1710   1.278       .  A
C1175      C1208   1.483       .  S
C1176      C1669   1.481       .  S
C1177      C1178   1.402       .  A
C1177      C1182   1.403       .  A
C1177      C1522   1.481       .  S
C1178      C1179   1.405       .  A
C1178      H1183   1.084       .  S
C1179      C1180   1.404       .  A
C1179      C1336   1.478       .  S
C1180      C1181   1.403       .  A
C1180      H1184   1.083       .  S
C1181      C1182   1.405       .  A
C1181      C1238   1.479       .  S
C1182      H1185   1.084       .  S
C1186      C1187   1.403       .  A
C1186      C1191   1.403       .  A
C1186      C1513   1.481       .  S
C1187      C1188   1.404       .  A
C1187      H1192   1.084       .  S
C1188      C1189   1.403       .  A
C1188      C1303   1.479       .  S
C1189      C1190   1.404       .  A
C1189      H1193   1.083       .  S
C1190      C1191   1.405       .  A
C1190      C1224   1.478       .  S
C1191      H1194   1.084       .  S
C1195      C1196   1.405       .  A
C1195      C1200   1.406       .  A
C1195      C1485   1.489       .  S
C1196      C1197   1.405       .  A
C1196      H1201   1.083       .  S
C1197      C1198   1.405       .  A
C1198      C1199   1.406       .  A
C1198      H1202   1.083       .  S
C1199      C1200   1.406       .  A
C1199      C1239   1.483       .  S
C1200      H1203   1.083       .  S
C1204      C1205   1.403       .  A
C1204      C1209   1.403       .  A
C1204      C1494   1.483       .  S
C1205      C1206   1.405       .  A
C1205      H1210   1.084       .  S
C1206      C1207   1.406       .  A
C1206      C1225   1.482       .  S
C1207      C1208   1.406       .  A
C1207      H1211   1.083       .  S
C1208      C1209   1.406       .  A
C1209      H1212   1.084       .  S
O1213     Cu1221   2.000       .  S
O1213      C1223   1.277       .  A
O1214     Cu1761   1.999       .  S
O1214      C1224   1.278       .  A
O1215     Cu1221   2.008       .  S
O1215      C1225   1.278       .  A
O1216     Cu1221   2.007       .  S
O1216      C1226   1.278       .  A
O1217     Cu1222   2.007       .  S
O1217      C1226   1.279       .  A
O1218     Cu1222   2.008       .  S
O1218      C1225   1.278       .  A
O1219     Cu1222   2.006       .  S
O1219      C1764   1.278       .  A
O1220     Cu1222   2.007       .  S
O1220      C1223   1.279       .  A
Cu1221     O1754   1.999       .  S
Cu1221    Cu1222   2.371       .  S
C1224      O1759   1.278       .  A
C1226      C1671   1.481       .  S
O1227     Cu1235   2.003       .  S
O1227      C1237   1.278       .  A
O1228      C1238   1.277       .  A
O1229      C1239   1.279       .  A
O1230     Cu1235   2.014       .  S
O1230      C1240   1.279       .  A
O1231     Cu1236   2.007       .  S
O1232     Cu1236   2.007       .  S
O1232      C1239   1.278       .  A
O1233     Cu1236   2.005       .  S
O1233      C1238   1.279       .  A
O1234     Cu1236   2.007       .  S
C1237      C1275   1.480       .  S
C1240      C1245   1.484       .  S
C1241      C1242   1.403       .  A
C1241      C1246   1.403       .  A
C1241      C1457   1.483       .  S
C1242      C1243   1.407       .  A
C1242      H1247   1.084       .  S
C1243      C1244   1.407       .  A
C1244      C1245   1.405       .  A
C1244      H1248   1.083       .  S
C1245      C1246   1.406       .  A
C1250      C1251   1.405       .  A
C1250      C1255   1.404       .  A
C1250      C1466   1.486       .  S
C1251      C1252   1.406       .  A
C1251      H1256   1.083   1_655  S
C1252      C1253   1.405       .  A
C1253      C1254   1.405       .  A
C1253      H1257   1.083       .  S
C1254      C1255   1.406       .  A
C1254      C1271   1.482       .  S
C1255      H1258   1.084       .  S
O1259     Cu1267   2.001       .  S
O1259      C1269   1.278       .  A
O1260     Cu1267   2.001       .  S
O1260      C1270   1.277       .  A
O1261     Cu1267   2.008       .  S
O1261      C1271   1.278       .  A
O1262     Cu1267   2.007       .  S
O1262      C1272   1.279       .  A
O1263     Cu1268   2.008       .  S
O1263      C1272   1.278       .  A
O1264     Cu1268   2.007       .  S
O1264      C1271   1.279       .  A
O1265     Cu1268   2.006       .  S
O1265      C1270   1.279       .  A
O1266     Cu1268   2.008       .  S
O1266      C1269   1.278       .  A
Cu1267    Cu1268   2.370       .  S
C1270      C1824   1.479       .  S
C1273      C1274   1.403       .  A
C1273      C1278   1.401       .  A
C1273      C1438   1.479       .  S
C1274      C1275   1.404       .  A
C1275      C1276   1.404       .  A
C1276      C1277   1.405       .  A
C1276      H1280   1.083       .  S
C1277      C1278   1.404       .  A
C1277      C1335   1.478       .  S
C1278      H1821   1.084       .  S
H1281      C1818   1.084       .  S
C1282      C1283   1.403       .  A
C1282      C1287   1.406       .  A
C1282      C1429   1.485       .  S
C1283      C1284   1.405       .  A
C1283      H1828   1.084   1_545  S
C1284      C1285   1.403       .  A
C1284      C1810   1.479   1_545  S
C1285      C1286   1.404       .  A
C1285      H1289   1.083       .  S
C1286      C1287   1.405       .  A
H1288      C1823   1.084       .  S
O1291     Cu1299   2.008       .  S
O1291      C1301   1.278       .  A
O1292     Cu1299   2.010       .  S
O1292      C1302   1.279       .  A
O1293      C1303   1.279       .  A
O1294     Cu1299   2.005       .  S
O1294      C1304   1.278       .  A
O1295     Cu1300   2.001       .  S
O1295      C1304   1.278       .  A
O1296     Cu1300   2.002       .  S
O1297     Cu1300   2.010       .  S
O1297      C1302   1.278       .  A
O1298     Cu1300   2.010       .  S
O1298      C1301   1.279       .  A
Cu1299    Cu1300   2.370       .  S
C1302      C1316   1.484       .  S
C1305      C1306   1.402       .  A
C1305      C1310   1.403       .  A
C1305      C1410   1.481       .  S
C1306      C1307   1.405       .  A
C1306      H1311   1.084       .  S
C1307      C1308   1.405       .  A
C1308      C1309   1.407       .  A
C1308      H1312   1.083       .  S
C1309      C1310   1.406       .  A
C1309      C1333   1.481       .  S
C1310      H1313   1.084       .  S
C1314      C1315   1.403       .  A
C1314      C1319   1.402       .  A
C1314      C1401   1.482       .  S
C1315      C1316   1.406       .  A
C1315      H1320   1.083       .  S
C1316      C1317   1.407       .  A
C1317      C1318   1.407       .  A
C1317      H1321   1.083       .  S
C1318      C1319   1.404       .  A
C1319      H1322   1.084       .  S
O1323     Cu1871   2.011       .  S
O1323      C1333   1.279       .  A
O1324     Cu1331   2.012       .  S
O1324      C1334   1.279       .  A
O1325     Cu1331   2.001       .  S
O1325      C1335   1.278       .  A
O1326     Cu1871   2.000       .  S
O1326      C1336   1.277       .  A
O1327     Cu1332   2.003       .  S
O1327      C1336   1.278       .  A
O1328     Cu1332   2.002       .  S
O1328      C1875   1.277       .  A
O1329     Cu1332   2.006       .  S
O1329      C1874   1.278       .  A
O1330     Cu1332   2.005       .  S
O1330      C1333   1.278       .  A
Cu1331     O1863   2.011   1_545  S
Cu1331     O1866   2.000   1_545  S
Cu1331    Cu1872   2.371   1_545  S
Cu1332    Cu1871   2.371       .  S
C1334      C1339   1.482       .  S
C1334      O1869   1.278       .  A
C1335      O1868   1.277   1_545  A
C1337      C1338   1.405       .  A
C1337      C1342   1.404       .  A
C1337      C1382   1.488       .  S
C1338      C1339   1.406       .  A
C1338      H1883   1.083       .  S
C1339      C1340   1.404       .  A
C1340      C1341   1.406       .  A
C1340      H1344   1.083       .  S
C1341      C1342   1.405       .  A
C1342      H1345   1.083       .  S
H1343      C1878   1.083       .  S
C1346      C1347   1.400       .  A
C1346      C1351   1.404       .  A
C1346      C1373   1.478       .  S
C1347      C1348   1.404       .  A
C1347      H1352   1.084       .  S
C1348      C1349   1.407       .  A
C1348      C1665   1.481   1_545  S
C1349      C1350   1.407       .  A
C1349      H1353   1.083       .  S
C1350      C1351   1.406       .  A
C1350      C1368   1.485       .  S
C1351      H1354   1.083       .  S
O1355     Cu1363   2.003       .  S
O1355      C1365   1.278       .  A
O1356     Cu1363   2.001       .  S
O1356      C1366   1.277       .  A
O1357     Cu1363   2.010       .  S
O1357      C1367   1.278       .  A
O1358     Cu1363   2.011       .  S
O1358      C1368   1.279       .  A
O1359     Cu1364   2.014       .  S
O1359      C1368   1.279       .  A
O1360     Cu1364   2.012       .  S
O1360      C1367   1.279       .  A
O1361     Cu1364   2.006       .  S
O1361      C1366   1.279       .  A
O1362     Cu1364   2.010       .  S
O1362      C1365   1.278       .  A
Cu1363    Cu1364   2.370       .  S
C1369      C1370   1.402       .  A
C1369      C1374   1.395       .  A
C1369      H1919   1.084       .  S
C1370      C1371   1.418       .  A
C1370      C1375   1.483       .  S
C1371      C1372   1.408       .  A
C1371      N1376   1.438       .  S
C1372      C1373   1.402       .  A
C1372      H1377   1.083       .  S
C1373      C1374   1.405       .  A
C1374      N1918   1.426       .  S
C1375      C1380   1.411       .  A
C1375      C1384   1.401       .  A
N1376      O1391   1.263       .  A
N1376      O1392   1.263       .  A
N1378      C1914   1.426       .  S
N1378      O1389   1.262       .  A
N1378      O1390   1.260       .  A
H1379      C1909   1.084       .  S
C1380      C1381   1.401       .  A
C1380      N1925   1.436       .  S
C1381      C1382   1.405       .  A
C1381      H1926   1.084       .  S
C1382      C1383   1.420       .  A
C1383      C1384   1.404       .  A
C1383      N1387   1.438       .  S
C1384      H1388   1.084       .  S
N1385      C1920   1.436       .  S
N1385      O1395   1.262       .  A
N1385      O1396   1.263       .  A
H1386      C1921   1.084       .  S
N1387      O1393   1.263       .  A
N1387      O1394   1.263       .  A
C1397      C1398   1.402       .  A
C1397      C1402   1.401       .  A
C1397      H1407   1.085       .  S
C1398      C1399   1.414       .  A
C1398      C1403   1.481       .  S
C1399      C1400   1.404       .  A
C1399      N1404   1.438       .  S
C1400      C1401   1.404       .  A
C1400      H1405   1.085       .  S
C1401      C1402   1.416       .  A
C1402      N1406   1.438       .  S
C1403      C1408   1.414       .  A
C1403      C1412   1.403       .  A
N1404      O1419   1.263       .  A
N1404      O1420   1.263       .  A
N1406      O1417   1.263       .  A
N1406      O1418   1.263       .  A
C1408      C1409   1.402       .  A
C1408      N1413   1.439       .  S
C1409      C1410   1.402       .  A
C1409      H1414   1.085       .  S
C1410      C1411   1.416       .  A
C1411      C1412   1.404       .  A
C1411      N1415   1.438       .  S
C1412      H1416   1.085       .  S
N1413      O1423   1.263       .  A
N1413      O1424   1.263       .  A
N1415      O1421   1.263       .  A
N1415      O1962   1.263       .  A
O1422      N1955   1.263       .  A
C1425      C1426   1.397       .  A
C1425      C1430   1.397       .  A
C1426      C1427   1.415       .  A
C1426      C1431   1.478       .  S
C1427      C1428   1.407       .  A
C1427      N1432   1.440       .  S
C1428      C1429   1.405       .  A
C1428      H1433   1.084       .  S
C1429      C1430   1.413       .  A
C1431      C1436   1.411       .  A
C1431      C1440   1.403       .  A
N1432      O1447   1.262       .  A
N1432      O1448   1.262       .  A
N1434      O1445   1.262       .  A
N1434      O1446   1.263       .  A
C1436      C1437   1.401       .  A
C1437      C1438   1.403       .  A
C1438      C1439   1.415       .  A
C1439      C1440   1.404       .  A
C1439      N1983   1.439       .  S
C1440      H1444   1.084       .  S
N1441      O1451   1.262       .  A
N1441      O1452   1.261       .  A
N1443      C1979   1.439       .  S
N1443      O1449   1.263       .  A
N1443      O1450   1.263       .  A
C1453      C1454   1.404       .  A
C1453      C1458   1.406       .  A
C1453      H1463   1.085       .  S
C1454      C1455   1.410       .  A
C1454      C1459   1.484       .  S
C1455      C1456   1.400       .  A
C1455      N1460   1.432       .  S
C1456      C1457   1.403       .  A
C1456      H1461   1.085       .  S
C1457      C1458   1.414       .  A
C1458      N1462   1.434       .  S
C1459      C1464   1.413       .  A
C1459      C1468   1.403       .  A
N1460      O1475   1.261       .  A
N1460      O1476   1.262       .  A
N1462      O1473   1.262       .  A
N1462      O1474   1.262       .  A
C1464      C1465   1.404       .  A
C1464      N1469   1.438   1_655  S
C1465      C1466   1.406       .  A
C1465      H1470   1.085   1_655  S
C1466      C1467   1.416       .  A
C1467      C1468   1.404       .  A
C1467      N1471   1.438       .  S
C1468      H1472   1.085       .  S
N1471      O1477   1.263       .  A
N1471      O1478   1.263       .  A
C1481      C1482   1.400       .  A
C1481      C1486   1.403       .  A
C1481      H1491   1.085       .  S
C1482      C1483   1.412       .  A
C1482      C1487   1.479       .  S
C1483      C1484   1.403       .  A
C1484      C1485   1.406       .  A
C1485      C1486   1.419       .  A
C1486      N1490   1.438       .  S
C1487      C1492   1.413       .  A
C1487      C1496   1.401       .  A
N1488      O1503   1.262       .  A
N1488      O1504   1.263   1_455  A
N1490      O1501   1.263       .  A
N1490      O1502   1.263       .  A
C1492      C1493   1.404       .  A
C1492      N1497   1.439       .  S
C1493      C1494   1.404       .  A
C1493      H1498   1.084       .  S
C1494      C1495   1.417       .  A
C1495      C1496   1.404       .  A
C1495      N1499   1.439       .  S
C1496      H1500   1.084       .  S
N1497      O1507   1.263       .  A
N1497      O1508   1.262       .  A
N1499      O1505   1.263       .  A
C1509      C1510   1.403       .  A
C1509      C1514   1.404       .  A
C1509      H1519   1.085       .  S
C1510      C1511   1.413       .  A
C1510      C1515   1.480       .  S
C1511      C1512   1.400       .  A
C1511      N1516   1.439       .  S
C1512      C1513   1.403       .  A
C1512      H1517   1.085       .  S
C1513      C1514   1.414       .  A
C1514      N1518   1.437       .  S
C1515      C1520   1.413       .  A
C1515      C1524   1.403       .  A
N1518      O1529   1.263       .  A
N1518      O1530   1.263       .  A
C1520      C1521   1.402       .  A
C1520      N1525   1.438       .  S
C1521      C1522   1.405       .  A
C1521      H1526   1.085       .  S
C1522      C1523   1.414       .  A
C1523      C1524   1.403       .  A
C1523      N1527   1.437       .  S
C1524      H1528   1.085       .  S
N1525      O1535   1.263       .  A
N1525      O1536   1.262       .  A
N1527      O1533   1.263       .  A
N1527      O2074   1.262       .  A
O1534      N2067   1.262       .  A
C1537      C1538   1.401       .  A
C1537      C1542   1.403       .  A
C1537      H1547   1.084       .  S
C1538      C1543   1.480       .  S
C1539      C1540   1.405       .  A
C1539      N1544   1.440       .  S
C1540      H1545   1.084       .  S
C1541      C1542   1.417       .  A
C1542      N1546   1.438       .  S
C1543      C1548   1.406       .  A
N1544      O1559   1.263       .  A
N1544      O1560   1.263       .  A
N1546      O1557   1.262       .  A
N1546      O1558   1.263       .  A
C1548      C1549   1.399   1_556  A
C1548      N1553   1.429       .  S
C1549      C1550   1.405       .  A
C1549      H1554   1.085       .  S
C1551      C1552   1.405   1_554  A
C1551      N1555   1.439       .  S
C1552      H1556   1.084       .  S
N1553      O1563   1.262       .  A
N1553      O1564   1.262       .  A
N1555      O1561   1.263       .  A
N1555      O1562   1.263       .  A
C1565      C1566   1.401       .  A
C1565      C1570   1.402   1_556  A
C1565      H1575   1.085       .  S
C1566      C1567   1.414       .  A
C1566      C1571   1.479       .  S
C1567      C1568   1.405   1_556  A
C1567      N1572   1.441       .  S
C1568      C1569   1.405       .  A
C1568      H1573   1.085       .  S
C1569      C1570   1.417       .  A
C1570      N2114   1.438       .  S
C1571      C1576   1.412       .  A
C1571      C2120   1.402       .  A
N1572      O1587   1.262       .  A
N1572      O1588   1.263   1_556  A
N1574      C2110   1.438       .  S
N1574      O1585   1.263       .  A
N1574      O1586   1.263       .  A
C1576      C1577   1.403       .  A
C1576      N1581   1.439       .  S
C1577      C1578   1.405       .  A
C1577      H1582   1.083       .  S
C1578      C2119   1.416       .  A
C1579      C2118   1.416   1_545  A
C1579      C1580   1.405       .  A
C1579      N1583   1.440       .  S
C1580      C2111   1.402   1_545  A
C1580      H1584   1.083       .  S
N1581      O1591   1.263       .  A
N1581      O1592   1.262       .  A
N1583      O1589   1.263       .  A
N1583      O1590   1.263       .  A
C1593      C1594   1.403       .  A
C1593      C1598   1.403   1_556  A
C1593      H1603   1.085       .  S
C1594      C1595   1.412       .  A
C1594      C1599   1.480       .  S
C1595      C1596   1.401   1_556  A
C1595      N1600   1.436       .  S
C1596      C1597   1.404       .  A
C1596      H1601   1.086       .  S
C1597      C1598   1.413       .  A
C1598      N1602   1.437       .  S
C1599      C1604   1.413       .  A
C1599      C1608   1.403       .  A
N1600      O1615   1.262       .  A
N1600      O1616   1.262       .  A
N1602      O1613   1.262       .  A
N1602      O1614   1.263       .  A
C1604      C1605   1.401       .  A
C1604      N1609   1.439       .  S
C1605      C1606   1.404       .  A
C1605      H1610   1.085       .  S
C1606      C1607   1.415       .  A
C1607      C1608   1.404       .  A
C1607      N1611   1.438       .  S
C1608      H1612   1.085       .  S
N1609      O1619   1.263       .  A
N1609      O1620   1.263       .  A
N1611      O1617   1.263       .  A
N1611      O1618   1.263       .  A
C1621      C1622   1.402       .  A
C1621      C1626   1.402       .  A
C1621      C2137   1.479       .  S
C1622      C1623   1.404       .  A
C1622      H1627   1.084       .  S
C1623      C1624   1.403       .  A
C1623      C1763   1.479       .  S
C1624      C1625   1.405       .  A
C1624      H1628   1.083       .  S
C1625      C1626   1.406       .  A
C1625      C1844   1.479       .  S
C1626      H1629   1.084       .  S
C1630      C1631   1.404       .  A
C1630      C1635   1.403       .  A
C1630      C2146   1.482       .  S
C1631      C1632   1.406       .  A
C1631      H1636   1.084       .  S
C1632      C1633   1.405       .  A
C1632      C1809   1.480       .  S
C1633      C1634   1.403       .  A
C1633      H1637   1.083       .  S
C1634      C1635   1.404       .  A
C1634      C1906   1.479       .  S
C1635      H1638   1.084       .  S
O1639     Cu1647   2.003       .  S
O1639      C1649   1.278       .  A
O1640     Cu1647   2.005       .  S
O1640      C1650   1.278       .  A
O1641     Cu1647   2.008       .  S
O1641      C1651   1.279       .  A
O1642     Cu1647   2.005       .  S
O1642      C1652   1.278       .  A
O1643     Cu1648   2.011       .  S
O1643      C1652   1.279       .  A
O1644     Cu1648   2.011       .  S
O1644      C1651   1.278       .  A
O1645     Cu1648   2.010       .  S
O1645      C1650   1.279       .  A
O1646     Cu1648   2.009       .  S
O1646      C1649   1.278       .  A
Cu1647    Cu1648   2.370       .  S
C1649      C1881   1.480       .  S
C1650      C1847   1.481       .  S
C1651      C1783   1.483       .  S
C1652      C1737   1.482       .  S
O1653     Cu1661   2.009       .  S
O1653      C1663   1.279       .  A
O1654     Cu1661   2.009       .  S
O1654      C1664   1.278       .  A
O1655     Cu1661   2.006       .  S
O1655      C1665   1.278       .  A
O1656     Cu1661   2.005       .  S
O1656      C1666   1.278       .  A
O1657     Cu1662   2.010       .  S
O1657      C1666   1.279       .  A
O1658     Cu1662   2.008       .  S
O1658      C1665   1.279       .  A
O1659     Cu1662   2.005       .  S
O1659      C1664   1.278       .  A
O1660     Cu1662   2.009       .  S
O1660      C1663   1.278       .  A
Cu1661    Cu1662   2.370       .  S
C1664      C1680   1.481       .  S
C1666      C1696   1.482       .  S
C1667      C1668   1.404       .  A
C1667      C1672   1.404       .  A
C1667      C2109   1.486       .  S
C1668      C1669   1.405       .  A
C1668      H1673   1.083       .  S
C1670      H1674   1.083       .  S
C1671      C1672   1.405       .  A
C1672      H1675   1.084       .  S
C1676      C1677   1.404       .  A
C1676      C1681   1.403       .  A
C1676      C2118   1.483       .  S
C1677      C1678   1.406       .  A
C1677      H1682   1.083       .  S
C1678      C1679   1.405       .  A
C1678      C1812   1.482       .  S
C1679      C1680   1.405       .  A
C1679      H1683   1.083       .  S
C1680      C1681   1.405       .  A
C1681      H1684   1.084       .  S
C1685      C1686   1.403       .  A
C1685      C1690   1.403       .  A
C1685      C2090   1.484       .  S
C1686      C1687   1.406       .  A
C1686      H1691   1.084       .  S
C1688      H1692   1.083       .  S
C1689      C1690   1.406       .  A
C1690      H1693   1.084       .  S
C1694      C1695   1.402       .  A
C1694      C1699   1.403       .  A
C1694      C2081   1.484       .  S
C1695      C1696   1.405       .  A
C1695      H1700   1.084       .  S
C1696      C1697   1.407       .  A
C1697      C1698   1.407       .  A
C1697      H1701   1.083       .  S
C1698      C1699   1.407       .  A
C1698      C1907   1.484       .  S
C1699      H1702   1.084       .  S
O1703      C1713   1.278       .  A
O1704     Cu1711   2.006       .  S
O1704      C1714   1.278       .  A
O1705      C1715   1.279       .  A
O1706     Cu1711   2.008       .  S
O1706      C1716   1.278       .  A
O1707     Cu1712   2.006       .  S
O1707      C1716   1.278       .  A
O1708     Cu1712   2.008       .  S
O1709     Cu1712   2.011       .  S
O1709      C1714   1.279       .  A
O1710     Cu1712   2.008       .  S
Cu1711    Cu1712   2.370       .  S
C1713      C1858   1.482   1_545  S
C1715      C1748   1.483       .  S
C1717      C1718   1.402       .  A
C1717      C1722   1.403       .  A
C1717      C2062   1.481       .  S
C1718      C1719   1.405       .  A
C1718      H1723   1.084       .  S
C1719      C1720   1.404       .  A
C1719      C1876   1.478       .  S
C1720      C1721   1.403       .  A
C1720      H1724   1.083       .  S
C1721      C1722   1.405       .  A
C1721      C1778   1.479       .  S
C1722      H1725   1.084       .  S
C1726      C1727   1.403       .  A
C1726      C1731   1.403       .  A
C1726      C2053   1.480       .  S
C1727      C1728   1.404       .  A
C1727      H1732   1.084       .  S
C1728      C1729   1.403       .  A
C1728      C1843   1.479       .  S
C1729      C1730   1.404       .  A
C1729      H1733   1.083       .  S
C1730      C1731   1.405       .  A
C1730      C1764   1.478   1_565  S
C1731      H1734   1.084       .  S
C1735      C1736   1.405       .  A
C1735      C1740   1.406       .  A
C1735      C2025   1.489       .  S
C1736      C1737   1.405       .  A
C1736      H1741   1.083       .  S
C1737      C1738   1.405       .  A
C1738      C1739   1.406       .  A
C1738      H1742   1.083       .  S
C1739      C1740   1.406       .  A
C1739      C1779   1.483       .  S
C1740      H1743   1.083       .  S
C1744      C1745   1.403       .  A
C1744      C1749   1.403       .  A
C1744      C2034   1.483       .  S
C1745      C1746   1.405       .  A
C1745      H1750   1.084       .  S
C1746      C1747   1.406       .  A
C1746      C1765   1.482       .  S
C1747      C1748   1.406       .  A
C1747      H1751   1.083       .  S
C1748      C1749   1.406       .  A
C1749      H1752   1.084       .  S
O1753     Cu1761   2.000       .  S
O1753      C1763   1.277       .  A
O1754      C1764   1.278       .  A
O1755     Cu1761   2.008       .  S
O1755      C1765   1.278       .  A
O1756     Cu1761   2.007       .  S
O1756      C1766   1.278       .  A
O1757     Cu1762   2.007       .  S
O1757      C1766   1.279       .  A
O1758     Cu1762   2.008       .  S
O1758      C1765   1.278       .  A
O1759     Cu1762   2.006       .  S
O1760     Cu1762   2.007       .  S
O1760      C1763   1.279       .  A
Cu1761    Cu1762   2.371       .  S
O1767     Cu1775   2.003       .  S
O1767      C1777   1.278       .  A
O1768      C1778   1.277       .  A
O1769      C1779   1.279       .  A
O1770     Cu1775   2.014       .  S
O1770      C1780   1.279       .  A
O1771     Cu1776   2.007       .  S
O1772     Cu1776   2.007       .  S
O1772      C1779   1.278       .  A
O1773     Cu1776   2.005       .  S
O1773      C1778   1.279       .  A
O1774     Cu1776   2.007       .  S
C1777      C1815   1.480       .  S
C1780      C1785   1.484       .  S
C1781      C1782   1.403       .  A
C1781      C1786   1.403       .  A
C1781      C1997   1.482       .  S
C1782      C1783   1.407       .  A
C1782      H1787   1.084       .  S
C1783      C1784   1.407       .  A
C1784      C1785   1.405       .  A
C1784      H1788   1.083       .  S
C1785      C1786   1.406       .  A
C1790      C1791   1.405       .  A
C1790      C1795   1.404       .  A
C1790      C2006   1.486       .  S
C1791      C1792   1.406       .  A
C1791      H1796   1.083   1_655  S
C1792      C1793   1.405       .  A
C1793      C1794   1.405       .  A
C1793      H1797   1.083       .  S
C1794      C1795   1.406       .  A
C1794      C1811   1.482       .  S
C1795      H1798   1.084       .  S
O1799     Cu1807   2.001       .  S
O1799      C1809   1.278       .  A
O1800     Cu1807   2.000       .  S
O1800      C1810   1.277       .  A
O1801     Cu1807   2.008       .  S
O1801      C1811   1.278       .  A
O1802     Cu1807   2.007       .  S
O1802      C1812   1.279       .  A
O1803     Cu1808   2.008       .  S
O1803      C1812   1.278       .  A
O1804     Cu1808   2.007       .  S
O1804      C1811   1.279       .  A
O1805     Cu1808   2.006       .  S
O1805      C1810   1.279       .  A
O1806     Cu1808   2.009       .  S
O1806      C1809   1.278       .  A
Cu1807    Cu1808   2.370       .  S
C1813      C1814   1.403       .  A
C1813      C1818   1.401       .  A
C1813      C1978   1.480       .  S
C1814      C1815   1.404       .  A
C1815      C1816   1.404       .  A
C1816      C1817   1.405       .  A
C1816      H1820   1.083       .  S
C1817      C1818   1.404       .  A
C1817      C1875   1.478       .  S
C1822      C1823   1.403       .  A
C1822      C1827   1.406       .  A
C1822      C1969   1.485       .  S
C1823      C1824   1.405       .  A
C1824      C1825   1.403       .  A
C1825      C1826   1.404       .  A
C1825      H1829   1.083       .  S
C1826      C1827   1.405       .  A
O1831     Cu1839   2.008       .  S
O1831      C1841   1.278       .  A
O1832     Cu1839   2.010       .  S
O1832      C1842   1.279       .  A
O1833      C1843   1.279       .  A
O1834     Cu1839   2.005       .  S
O1834      C1844   1.278       .  A
O1835     Cu1840   2.001       .  S
O1835      C1844   1.278       .  A
O1836     Cu1840   2.002       .  S
O1837     Cu1840   2.010       .  S
O1837      C1842   1.278       .  A
O1838     Cu1840   2.010       .  S
O1838      C1841   1.279       .  A
Cu1839    Cu1840   2.370       .  S
C1842      C1856   1.484       .  S
C1845      C1846   1.402       .  A
C1845      C1850   1.403       .  A
C1845      C1950   1.480       .  S
C1846      C1847   1.405       .  A
C1846      H1851   1.084       .  S
C1847      C1848   1.405       .  A
C1848      C1849   1.407       .  A
C1848      H1852   1.083       .  S
C1849      C1850   1.406       .  A
C1849      C1873   1.481       .  S
C1850      H1853   1.084       .  S
C1854      C1855   1.403       .  A
C1854      C1859   1.402       .  A
C1854      C1941   1.482       .  S
C1855      C1856   1.406       .  A
C1855      H1860   1.083       .  S
C1856      C1857   1.407       .  A
C1857      C1858   1.407       .  A
C1857      H1861   1.083       .  S
C1858      C1859   1.404       .  A
C1859      H1862   1.084       .  S
O1863      C1873   1.279       .  A
O1864     Cu1871   2.012       .  S
O1864      C1874   1.279       .  A
O1865     Cu1871   2.001       .  S
O1865      C1875   1.278       .  A
O1866      C1876   1.277       .  A
O1867     Cu1872   2.003       .  S
O1867      C1876   1.278       .  A
O1868     Cu1872   2.002       .  S
O1869     Cu1872   2.006   1_545  S
O1870     Cu1872   2.005       .  S
O1870      C1873   1.278       .  A
C1874      C1879   1.482       .  S
C1877      C1878   1.405       .  A
C1877      C1882   1.404       .  A
C1877      C1922   1.488       .  S
C1878      C1879   1.406       .  A
C1879      C1880   1.404       .  A
C1880      C1881   1.406       .  A
C1880      H1884   1.083       .  S
C1881      C1882   1.405       .  A
C1882      H1885   1.083       .  S
C1886      C1887   1.400       .  A
C1886      C1891   1.404       .  A
C1886      C1913   1.478       .  S
C1887      C1888   1.404       .  A
C1887      H1892   1.084       .  S
C1888      C1889   1.407       .  A
C1889      C1890   1.407       .  A
C1889      H1893   1.083       .  S
C1890      C1891   1.406       .  A
C1890      C1908   1.485       .  S
C1891      H1894   1.083       .  S
O1895     Cu1903   2.003       .  S
O1895      C1905   1.278       .  A
O1896     Cu1903   2.001       .  S
O1896      C1906   1.277       .  A
O1897     Cu1903   2.010       .  S
O1897      C1907   1.278       .  A
O1898     Cu1903   2.011       .  S
O1898      C1908   1.279       .  A
O1899     Cu1904   2.013       .  S
O1899      C1908   1.279       .  A
O1900     Cu1904   2.012       .  S
O1900      C1907   1.279       .  A
O1901     Cu1904   2.006       .  S
O1901      C1906   1.279       .  A
O1902     Cu1904   2.010       .  S
O1902      C1905   1.278       .  A
Cu1903    Cu1904   2.370       .  S
C1909      C1910   1.402       .  A
C1909      C1914   1.395       .  A
C1910      C1911   1.418       .  A
C1910      C1915   1.483       .  S
C1911      C1912   1.408       .  A
C1911      N1916   1.438       .  S
C1912      C1913   1.402       .  A
C1912      H1917   1.083       .  S
C1913      C1914   1.405       .  A
C1915      C1920   1.411       .  A
C1915      C1924   1.401       .  A
N1916      O1931   1.263       .  A
N1916      O1932   1.263       .  A
N1918      O1929   1.262       .  A
N1918      O1930   1.260       .  A
C1920      C1921   1.401       .  A
C1921      C1922   1.405       .  A
C1922      C1923   1.420       .  A
C1923      C1924   1.404       .  A
C1923      N1927   1.438       .  S
C1924      H1928   1.084       .  S
N1925      O1935   1.262   1_545  A
N1925      O1936   1.263   1_545  A
N1927      O1933   1.263       .  A
N1927      O1934   1.263       .  A
C1937      C1938   1.402       .  A
C1937      C1942   1.401       .  A
C1937      H1947   1.085       .  S
C1938      C1939   1.414       .  A
C1938      C1943   1.481       .  S
C1939      C1940   1.404       .  A
C1939      N1944   1.438       .  S
C1940      C1941   1.404       .  A
C1940      H1945   1.085       .  S
C1941      C1942   1.416       .  A
C1942      N1946   1.438       .  S
C1943      C1948   1.414       .  A
C1943      C1952   1.403       .  A
N1944      O1959   1.263       .  A
N1944      O1960   1.263       .  A
N1946      O1957   1.263       .  A
N1946      O1958   1.263   1_565  A
C1948      C1949   1.402       .  A
C1948      N1953   1.439       .  S
C1949      C1950   1.402       .  A
C1949      H1954   1.085       .  S
C1950      C1951   1.416       .  A
C1951      C1952   1.404       .  A
C1951      N1955   1.438       .  S
C1952      H1956   1.085       .  S
N1953      O1963   1.263       .  A
N1953      O1964   1.263       .  A
N1955      O1961   1.263       .  A
C1965      C1966   1.397       .  A
C1965      C1970   1.397       .  A
C1966      C1967   1.415       .  A
C1966      C1971   1.478       .  S
C1967      C1968   1.407       .  A
C1967      N1972   1.440       .  S
C1968      C1969   1.405       .  A
C1968      H1973   1.084       .  S
C1969      C1970   1.413       .  A
C1971      C1976   1.411       .  A
C1971      C1980   1.403       .  A
N1972      O1987   1.262       .  A
N1972      O1988   1.262       .  A
N1974      O1985   1.262       .  A
N1974      O1986   1.263       .  A
C1976      C1977   1.401       .  A
C1977      C1978   1.403       .  A
C1978      C1979   1.415       .  A
C1979      C1980   1.404       .  A
C1980      H1984   1.084       .  S
N1981      O1991   1.262       .  A
N1981      O1992   1.261       .  A
N1983      O1989   1.263       .  A
N1983      O1990   1.263   1_545  A
C1993      C1994   1.404       .  A
C1993      C1998   1.406       .  A
C1993      H2003   1.085       .  S
C1994      C1995   1.410       .  A
C1994      C1999   1.484       .  S
C1995      C1996   1.400       .  A
C1995      N2000   1.432       .  S
C1996      C1997   1.403       .  A
C1996      H2001   1.085       .  S
C1997      C1998   1.413       .  A
C1998      N2002   1.434       .  S
C1999      C2004   1.413       .  A
C1999      C2008   1.403       .  A
N2000      O2015   1.261       .  A
N2000      O2016   1.262       .  A
N2002      O2013   1.262       .  A
N2002      O2014   1.262       .  A
C2004      C2005   1.404       .  A
C2004      N2009   1.438   1_655  S
C2005      C2006   1.406       .  A
C2005      H2010   1.085   1_655  S
C2006      C2007   1.416       .  A
C2007      C2008   1.404       .  A
C2007      N2011   1.438       .  S
C2008      H2012   1.085       .  S
N2011      O2017   1.263       .  A
N2011      O2018   1.263       .  A
C2021      C2022   1.400       .  A
C2021      C2026   1.403       .  A
C2021      H2031   1.085       .  S
C2022      C2023   1.412       .  A
C2022      C2027   1.479       .  S
C2023      C2024   1.403       .  A
C2024      C2025   1.406       .  A
C2025      C2026   1.419       .  A
C2026      N2030   1.438       .  S
C2027      C2032   1.413       .  A
C2027      C2036   1.401       .  A
N2028      O2043   1.262       .  A
N2028      O2044   1.263   1_455  A
N2030      O2041   1.263       .  A
N2030      O2042   1.263       .  A
C2032      C2033   1.404       .  A
C2032      N2037   1.439       .  S
C2033      C2034   1.404       .  A
C2033      H2038   1.084       .  S
C2034      C2035   1.417       .  A
C2035      C2036   1.404       .  A
C2035      N2039   1.439       .  S
C2036      H2040   1.084       .  S
N2037      O2047   1.263       .  A
N2037      O2048   1.262       .  A
N2039      O2045   1.263       .  A
C2049      C2050   1.403       .  A
C2049      C2054   1.404       .  A
C2049      H2059   1.085       .  S
C2050      C2051   1.413       .  A
C2050      C2055   1.480       .  S
C2051      C2052   1.400       .  A
C2051      N2056   1.439       .  S
C2052      C2053   1.403       .  A
C2052      H2057   1.085       .  S
C2053      C2054   1.414       .  A
C2054      N2058   1.437       .  S
C2055      C2060   1.413       .  A
C2055      C2064   1.403       .  A
N2058      O2069   1.263       .  A
N2058      O2070   1.263       .  A
C2060      C2061   1.402       .  A
C2060      N2065   1.438       .  S
C2061      C2062   1.405       .  A
C2061      H2066   1.085       .  S
C2062      C2063   1.414       .  A
C2063      C2064   1.403       .  A
C2063      N2067   1.437       .  S
C2064      H2068   1.085       .  S
N2065      O2075   1.263       .  A
N2065      O2076   1.262       .  A
N2067      O2073   1.263       .  A
C2077      C2078   1.401       .  A
C2077      C2082   1.403       .  A
C2077      H2087   1.084       .  S
C2078      C2083   1.480       .  S
C2079      C2080   1.405       .  A
C2079      N2084   1.440       .  S
C2080      H2085   1.084       .  S
C2081      C2082   1.417       .  A
C2082      N2086   1.438       .  S
C2083      C2088   1.406       .  A
N2084      O2099   1.263       .  A
N2084      O2100   1.263       .  A
N2086      O2097   1.262       .  A
N2086      O2098   1.263       .  A
C2088      C2089   1.399   1_556  A
C2088      N2093   1.429       .  S
C2089      C2090   1.405       .  A
C2089      H2094   1.085       .  S
C2091      C2092   1.405   1_554  A
C2091      N2095   1.439       .  S
C2092      H2096   1.084       .  S
N2093      O2103   1.262       .  A
N2093      O2104   1.262       .  A
N2095      O2101   1.263       .  A
N2095      O2102   1.263       .  A
C2105      C2106   1.401   1_545  A
C2105      C2110   1.402   1_556  A
C2105      H2115   1.085       .  S
C2106      C2107   1.414       .  A
C2106      C2111   1.479       .  S
C2107      C2108   1.405   1_556  A
C2107      N2112   1.441       .  S
C2108      C2109   1.405   1_565  A
C2108      H2113   1.085       .  S
C2109      C2110   1.417       .  A
C2111      C2116   1.412       .  A
N2112      O2127   1.262       .  A
N2112      O2128   1.263   1_556  A
N2114      O2125   1.263       .  A
N2114      O2126   1.263       .  A
C2116      C2117   1.403       .  A
C2116      N2121   1.439       .  S
C2117      C2118   1.405       .  A
C2117      H2122   1.083       .  S
C2119      C2120   1.405       .  A
C2119      N2123   1.440       .  S
C2120      H2124   1.083       .  S
N2121      O2131   1.263       .  A
N2121      O2132   1.262       .  A
N2123      O2129   1.263       .  A
N2123      O2130   1.263       .  A
C2133      C2134   1.403       .  A
C2133      C2138   1.403   1_556  A
C2133      H2143   1.085       .  S
C2134      C2135   1.412       .  A
C2134      C2139   1.480       .  S
C2135      C2136   1.401   1_556  A
C2135      N2140   1.436       .  S
C2136      C2137   1.404       .  A
C2136      H2141   1.086       .  S
C2137      C2138   1.413       .  A
C2138      N2142   1.437       .  S
C2139      C2144   1.413       .  A
C2139      C2148   1.403       .  A
N2140      O2155   1.262       .  A
N2140      O2156   1.262       .  A
N2142      O2153   1.262       .  A
N2142      O2154   1.263       .  A
C2144      C2145   1.401       .  A
C2144      N2149   1.439       .  S
C2145      C2146   1.404       .  A
C2145      H2150   1.085       .  S
C2146      C2147   1.415       .  A
C2147      C2148   1.404       .  A
C2147      N2151   1.438       .  S
C2148      H2152   1.085       .  S
N2149      O2159   1.263       .  A
N2149      O2160   1.263       .  A
N2151      O2157   1.263       .  A
N2151      O2158   1.263       .  A
