geometry optimzed in LAMMPS
_audit_creation_date              2020-11-30 
_audit_creation_method            'lammps2cif' 
_symmetry_space_group_name_H-M    'P1' 
_symmetry_Int_Tables_number       1 
_symmetry_cell_setting            triclinic 
loop_ 
_symmetry_equiv_pos_as_xyz 
  x,y,z 
_cell_length_a                    27.403402912323823 
_cell_length_b                    28.726049227275976 
_cell_length_c                    35.21316912724137 
_cell_angle_alpha                 95.94487828511015 
_cell_angle_beta                  86.69216374094763 
_cell_angle_gamma                 89.60029162550639 
loop_ 
_atom_site_label 
_atom_site_type_symbol 
_atom_site_fract_x 
_atom_site_fract_y 
_atom_site_fract_z 
_atom_site_charge 
C1          C  0.02911287  0.50607563  0.50621279     0.00530
C2          C  0.47847592  0.00299762  0.00400367     0.00530
C3          C  0.02329301  0.49496504  0.24808687     0.00530
C4          C  0.47252891  0.49633046  0.24611165     0.00530
Zn5        Zn  0.25583237  0.30488246  0.03772451     1.49720
Zn6        Zn  0.31051410  0.24950104  0.46370230     1.49360
Zn7        Zn  0.25039497  0.19559840  0.02520178     1.49110
Zn8        Zn  0.19268033  0.25558978  0.47172435     1.49480
O9          O  0.25237611  0.25163179  0.99929951    -1.84160
O10         O  0.31701276  0.33998238  0.02737822    -0.74790
O11         O  0.35456721  0.19413913  0.47040803    -0.74610
O12         O  0.24852344  0.20928207  0.08222848    -0.74130
O13         O  0.34992808  0.30913237  0.47168412    -0.74800
O14         O  0.25798441  0.28627029  0.09086998    -0.74400
O15         O  0.30909335  0.15558138  0.01094717    -0.74990
O16         O  0.14565440  0.20409460  0.48177764    -0.74380
O17         O  0.29022742  0.24351599  0.40948006    -0.75130
O18         O  0.19126867  0.15928052  0.01357564    -0.74520
O19         O  0.20923671  0.25361848  0.41496148    -0.74990
O20         O  0.15637209  0.31504139  0.48857726    -0.74900
O21         O  0.19775001  0.34905822  0.03628969    -0.74690
C22         C  0.34898839  0.34080343  0.99983945     0.77100
C23         C  0.34784165  0.15969974  0.99009630     0.77590
C24         C  0.25344702  0.24686235  0.10391269     0.76550
C25         C  0.15149599  0.16754525  0.99856186     0.76930
C26         C  0.24928249  0.24762133  0.39475969     0.78060
C27         C  0.16205381  0.34829342  0.01457323     0.77110
Zn28       Zn  0.25354813  0.18873827  0.27666256     1.49720
Zn29       Zn  0.31140396  0.24800752  0.21611393     1.49360
Zn30       Zn  0.19294863  0.23928392  0.21868810     1.49110
Zn31       Zn  0.24509536  0.30011235  0.28443033     1.49480
O32         O  0.25123154  0.24386276  0.24864869    -1.84160
O33         O  0.31049224  0.14674654  0.25669091    -0.74790
O34         O  0.29301835  0.25072835  0.16166483    -0.74610
O35         O  0.15353275  0.18223262  0.22666298    -0.74130
O36         O  0.35368861  0.18849706  0.21705915    -0.74800
O37         O  0.19291618  0.14958602  0.27078464    -0.74400
O38         O  0.21272889  0.23788896  0.16298536    -0.74990
O39         O  0.18799395  0.33906888  0.27348426    -0.74380
O40         O  0.34898832  0.30854403  0.23119311    -0.75130
O41         O  0.14747382  0.29461749  0.23179734    -0.74520
O42         O  0.30257813  0.34250820  0.27992620    -0.74990
O43         O  0.23876799  0.28368547  0.33877257    -0.74900
O44         O  0.25865634  0.20774830  0.33291879    -0.74690
C45         C  0.34724643  0.15118894  0.23360338     0.77100
C46         C  0.25314695  0.24486791  0.14500024     0.77590
C47         C  0.15753518  0.15061144  0.24901853     0.76550
C48         C  0.15151117  0.33274595  0.25299760     0.76930
C49         C  0.34013412  0.34267808  0.25705726     0.78060
C50         C  0.24857350  0.24618015  0.35332532     0.77110
C51         C  0.08170626  0.44701342  0.28272502    -0.01880
C52         C  0.05158174  0.45051312  0.25167597     0.07800
C53         C  0.05173613  0.41284042  0.22221585    -0.01990
C54         C  0.08428953  0.37458006  0.22217973    -0.02000
C55         C  0.11424886  0.37115611  0.25343494     0.07930
C56         C  0.11011180  0.40645989  0.28473990    -0.02190
Br57       Br  0.13945290  0.39857656  0.33266304    -0.00740
Br58       Br  0.08084572  0.49467121  0.32560999    -0.00810
Br59       Br  0.08869398  0.32932553  0.17730502    -0.00770
Br60       Br  0.00892686  0.41414627  0.18028476    -0.00750
C61         C  0.38998621  0.46755255  0.27537474    -0.01880
C62         C  0.43978632  0.45908959  0.26355434     0.07800
C63         C  0.45587287  0.41328087  0.26757380    -0.01990
C64         C  0.42508348  0.37585178  0.25771486    -0.02000
C65         C  0.37400016  0.38334695  0.26115862     0.07930
C66         C  0.35657902  0.42987469  0.27293607    -0.02190
Br67       Br  0.28771517  0.44397523  0.28235683    -0.00740
Br68       Br  0.36942453  0.02803911  0.30027787    -0.00810
Br69       Br  0.45430851  0.31422171  0.24941611    -0.00770
Br70       Br  0.48390388  0.40547165  0.31537477    -0.00750
C71         C  0.36781487  0.06630563  0.21193285    -0.01880
C72         C  0.38283597  0.11159308  0.22613700     0.07800
C73         C  0.43276107  0.11833632  0.23176965    -0.01990
C74         C  0.46530561  0.08025649  0.22428097    -0.02000
C75         C  0.44711915  0.03455009  0.22586093     0.07930
C76         C  0.40072094  0.02777397  0.21051664    -0.02190
Br77       Br  0.38458614  0.46821536  0.18405349    -0.00740
Br78       Br  0.30281134  0.05678273  0.19514604    -0.00810
Br79       Br  0.50942164  0.08923187  0.18131530    -0.00770
Br80       Br  0.45887187  0.17930349  0.24556143    -0.00750
C81         C  0.12652289  0.07599234  0.21863477    -0.01880
C82         C  0.12168442  0.11271961  0.24809030     0.07800
C83         C  0.08295438  0.11317890  0.27604363    -0.01990
C84         C  0.04936028  0.07615449  0.27509741    -0.02000
C85         C  0.05520304  0.03744845  0.24638017     0.07930
C86         C  0.09462515  0.03788667  0.21820761    -0.02190
Br87       Br  0.10332416  0.49007481  0.17571922    -0.00740
Br88       Br  0.17631119  0.07916095  0.17778158    -0.00810
Br89       Br  0.99630108  0.07879660  0.31410949    -0.00770
Br90       Br  0.07590683  0.16527754  0.31525859    -0.00750
C91         C  0.14146377  0.42272184  0.99086946    -0.01880
C92         C  0.12958892  0.38937641  0.01587063     0.07800
C93         C  0.08607352  0.39386707  0.53901748    -0.01990
C94         C  0.05461627  0.43283876  0.53786032    -0.02000
C95         C  0.06344614  0.46478010  0.00980333     0.07930
C96         C  0.10839401  0.45906599  0.98659375    -0.02190
Br97       Br  0.12719105  0.99719449  0.94633952    -0.00740
Br98       Br  0.20388757  0.41709176  0.96148551    -0.00810
Br99       Br  0.00504178  0.44457036  0.57894966    -0.00770
Br100      Br  0.06982362  0.34605565  0.57205887    -0.00750
C101        C  0.37136494  0.42298617  0.02329996    -0.01880
C102        C  0.38424288  0.38049948  0.00089634     0.07800
C103        C  0.43037318  0.37723675  0.48019518    -0.01990
C104        C  0.46090712  0.41684299  0.47985275    -0.02000
C105        C  0.44985207  0.45789906  0.00526101     0.07930
C106        C  0.40571451  0.45854998  0.02867722    -0.02190
Br107      Br  0.39105416  0.50572205  0.07097688    -0.00740
Br108      Br  0.30484785  0.43676628  0.04400679    -0.00810
Br109      Br  0.51235925  0.41571892  0.43980159    -0.00730
Br110      Br  0.45306659  0.31905463  0.45196817    -0.00750
C111        C  0.44535375  0.08626626  0.02659159    -0.01880
C112        C  0.44739774  0.04596049  0.99910984     0.07800
C113        C  0.41668177  0.04549110  0.46758170    -0.01990
C114        C  0.38672248  0.08435341  0.46326364    -0.02000
C115        C  0.38593863  0.12365702  0.99030209     0.07930
C116        C  0.41546559  0.12492123  0.02156695    -0.02190
Br117      Br  0.41225618  0.17951785  0.05887045    -0.00740
Br118      Br  0.47517732  0.08762848  0.07502352    -0.00810
Br119      Br  0.34482809  0.08367986  0.42082423    -0.00770
Br120      Br  0.41429957  0.99275488  0.42890285    -0.00750
C121        C  0.10642441  0.11211404  0.03616450    -0.01880
C122        C  0.11181258  0.13354273  0.00208087     0.07800
C123        C  0.08415495  0.11778829  0.47087622    -0.01990
C124        C  0.05419470  0.07826635  0.47287825    -0.02000
C125        C  0.05398144  0.05272233  0.00553414     0.07930
C126        C  0.08154788  0.06988688  0.03683357    -0.02190
Br127      Br  0.08731257  0.03662271  0.08138528    -0.00740
Br128      Br  0.13162340  0.14190105  0.08290955    -0.00810
Br129      Br  0.02412523  0.05381702  0.42673416    -0.00770
Br130      Br  0.09089463  0.14696678  0.42379388    -0.00750
C131        C  0.02911288  0.50607559  0.00621280     0.00530
C132        C  0.47847591  0.00299766  0.50400366     0.00530
C133        C  0.02329302  0.49496501  0.74808687     0.00530
C134        C  0.47252892  0.49633043  0.74611165     0.00530
Zn135      Zn  0.25583237  0.30488250  0.53772452     1.49720
Zn136      Zn  0.31051411  0.24950099  0.96370230     1.49360
Zn137      Zn  0.25039498  0.19559844  0.52520178     1.49110
Zn138      Zn  0.19268033  0.25558973  0.97172435     1.49480
O139        O  0.25237611  0.25163183  0.49929951    -1.84160
O140        O  0.31701276  0.33998241  0.52737823    -0.74790
O141        O  0.35456720  0.19413908  0.97040803    -0.74610
O142        O  0.24852345  0.20928209  0.58222847    -0.74130
O143        O  0.34992810  0.30913232  0.97168411    -0.74800
O144        O  0.25798441  0.28627031  0.59086999    -0.74400
O145        O  0.30909336  0.15558142  0.51094716    -0.74990
O146        O  0.14565440  0.20409456  0.98177763    -0.74380
O147        O  0.29022743  0.24351594  0.90948006    -0.75130
O148        O  0.19126868  0.15928055  0.51357563    -0.74520
O149        O  0.20923672  0.25361844  0.91496148    -0.74990
O150        O  0.15637208  0.31504134  0.98857725    -0.74900
O151        O  0.19775001  0.34905826  0.53628971    -0.74690
C152        C  0.34898838  0.34080347  0.49983946     0.77100
C153        C  0.34784165  0.15969978  0.49009629     0.77590
C154        C  0.25344702  0.24686236  0.60391269     0.76550
C155        C  0.15149600  0.16754529  0.49856186     0.76930
C156        C  0.24928250  0.24762129  0.89475968     0.78060
C157        C  0.16205382  0.34829347  0.51457324     0.77110
Zn158      Zn  0.25354815  0.18873824  0.77666255     1.49720
Zn159      Zn  0.31140397  0.24800750  0.71611392     1.49360
Zn160      Zn  0.19294864  0.23928389  0.71868809     1.49110
Zn161      Zn  0.24509537  0.30011232  0.78443032     1.49480
O162        O  0.25123156  0.24386273  0.74864868    -1.84160
O163        O  0.31049226  0.14674651  0.75669090    -0.74790
O164        O  0.29301836  0.25072835  0.66166483    -0.74610
O165        O  0.15353277  0.18223258  0.72666296    -0.74130
O166        O  0.35368863  0.18849703  0.71705913    -0.74800
O167        O  0.19291620  0.14958599  0.77078463    -0.74400
O168        O  0.21272890  0.23788895  0.66298536    -0.74990
O169        O  0.18799395  0.33906884  0.77348426    -0.74380
O170        O  0.34898834  0.30854400  0.73119311    -0.75130
O171        O  0.14747383  0.29461746  0.73179734    -0.74520
O172        O  0.30257814  0.34250818  0.77992620    -0.74990
O173        O  0.23876800  0.28368543  0.83877256    -0.74900
O174        O  0.25865636  0.20774827  0.83291878    -0.74690
C175        C  0.34724644  0.15118891  0.73360337     0.77100
C176        C  0.25314695  0.24486791  0.64500024     0.77590
C177        C  0.15753520  0.15061140  0.74901851     0.76550
C178        C  0.15151117  0.33274591  0.75299760     0.76930
C179        C  0.34013413  0.34267806  0.75705726     0.78060
C180        C  0.24857351  0.24618011  0.85332532     0.77110
C181        C  0.08170627  0.44701339  0.78272501    -0.01880
C182        C  0.05158175  0.45051309  0.75167597     0.07800
C183        C  0.05173613  0.41284038  0.72221585    -0.01990
C184        C  0.08428953  0.37458002  0.72217974    -0.02000
C185        C  0.11424886  0.37115607  0.75343494     0.07930
C186        C  0.11011181  0.40645985  0.78473990    -0.02190
Br187      Br  0.13945291  0.39857653  0.83266304    -0.00740
Br188      Br  0.08084575  0.49467119  0.82560999    -0.00810
Br189      Br  0.08869396  0.32932548  0.67730503    -0.00770
Br190      Br  0.00892686  0.41414623  0.68028476    -0.00750
C191        C  0.38998622  0.46755252  0.77537473    -0.01880
C192        C  0.43978633  0.45908957  0.76355433     0.07800
C193        C  0.45587288  0.41328085  0.76757381    -0.01990
C194        C  0.42508349  0.37585175  0.75771487    -0.02000
C195        C  0.37400017  0.38334693  0.76115862     0.07930
C196        C  0.35657902  0.42987466  0.77293605    -0.02190
Br197      Br  0.28771518  0.44397520  0.78235679    -0.00740
Br198      Br  0.36942453  0.02803909  0.80027785    -0.00810
Br199      Br  0.45430852  0.31422168  0.74941616    -0.00770
Br200      Br  0.48390389  0.40547166  0.81537479    -0.00750
C201        C  0.36781490  0.06630560  0.71193283    -0.01880
C202        C  0.38283599  0.11159305  0.72613698     0.07800
C203        C  0.43276108  0.11833630  0.73176965    -0.01990
C204        C  0.46530563  0.08025647  0.72428096    -0.02000
C205        C  0.44711917  0.03455006  0.72586092     0.07930
C206        C  0.40072096  0.02777395  0.71051662    -0.02190
Br207      Br  0.38458617  0.46821534  0.68405347    -0.00740
Br208      Br  0.30281137  0.05678271  0.69514600    -0.00810
Br209      Br  0.50942166  0.08923186  0.68131530    -0.00770
Br210      Br  0.45887188  0.17930346  0.74556145    -0.00750
C211        C  0.12652291  0.07599230  0.71863476    -0.01880
C212        C  0.12168444  0.11271957  0.74809029     0.07800
C213        C  0.08295440  0.11317886  0.77604362    -0.01990
C214        C  0.04936030  0.07615446  0.77509741    -0.02000
C215        C  0.05520305  0.03744842  0.74638016     0.07930
C216        C  0.09462516  0.03788663  0.71820760    -0.02190
Br217      Br  0.10332416  0.49007478  0.67571921    -0.00740
Br218      Br  0.17631120  0.07916090  0.67778157    -0.00810
Br219      Br  0.99630111  0.07879657  0.81410948    -0.00770
Br220      Br  0.07590686  0.16527750  0.81525859    -0.00750
C221        C  0.14146375  0.42272187  0.49086945    -0.01880
C222        C  0.12958893  0.38937646  0.51587064     0.07800
C223        C  0.08607351  0.39386702  0.03901747    -0.01990
C224        C  0.05461627  0.43283872  0.03786032    -0.02000
C225        C  0.06344613  0.46478013  0.50980332     0.07930
C226        C  0.10839399  0.45906601  0.48659373    -0.02190
Br227      Br  0.12719099  0.99719447  0.44633946    -0.00740
Br228      Br  0.20388755  0.41709179  0.46148549    -0.00810
Br229      Br  0.00504179  0.44457031  0.07894966    -0.00770
Br230      Br  0.06982359  0.34605558  0.07205883    -0.00750
C231        C  0.37136494  0.42298621  0.52329997    -0.01880
C232        C  0.38424288  0.38049953  0.50089635     0.07800
C233        C  0.43037319  0.37723671  0.98019517    -0.01990
C234        C  0.46090713  0.41684295  0.97985275    -0.02000
C235        C  0.44985207  0.45789910  0.50526101     0.07930
C236        C  0.40571451  0.45855003  0.52867722    -0.02190
Br237      Br  0.39105415  0.50572210  0.57097688    -0.00740
Br238      Br  0.30484784  0.43676632  0.54400680    -0.00810
Br239      Br  0.51235926  0.41571888  0.93980159    -0.00730
Br240      Br  0.45306659  0.31905460  0.95196814    -0.00750
C241        C  0.44535376  0.08626631  0.52659158    -0.01880
C242        C  0.44739774  0.04596053  0.49910983     0.07800
C243        C  0.41668178  0.04549106  0.96758170    -0.01990
C244        C  0.38672249  0.08435337  0.96326364    -0.02000
C245        C  0.38593863  0.12365707  0.49030208     0.07930
C246        C  0.41546561  0.12492128  0.52156693    -0.02190
Br247      Br  0.41225623  0.17951791  0.55887042    -0.00740
Br248      Br  0.47517734  0.08762853  0.57502350    -0.00810
Br249      Br  0.34482812  0.08367983  0.92082422    -0.00770
Br250      Br  0.41429960  0.99275485  0.92890285    -0.00750
C251        C  0.10642443  0.11211406  0.53616449    -0.01880
C252        C  0.11181259  0.13354276  0.50208087     0.07800
C253        C  0.08415495  0.11778825  0.97087622    -0.01990
C254        C  0.05419470  0.07826631  0.97287825    -0.02000
C255        C  0.05398144  0.05272236  0.50553413     0.07930
C256        C  0.08154789  0.06988691  0.53683356    -0.02190
Br257      Br  0.08731258  0.03662273  0.58138527    -0.00740
Br258      Br  0.13162343  0.14190106  0.58290954    -0.00810
Br259      Br  0.02412526  0.05381696  0.92673416    -0.00770
Br260      Br  0.09089465  0.14696671  0.92379387    -0.00750
C261        C  0.02910706  0.00607017  0.50619461     0.00530
C262        C  0.47848051  0.50300242  0.00403401     0.00530
C263        C  0.02328860  0.99496412  0.24809117     0.00530
C264        C  0.47252555  0.99633698  0.24611146     0.00530
Zn265      Zn  0.25584643  0.80488390  0.03766909     1.49720
Zn266      Zn  0.31051595  0.74947675  0.46364538     1.49360
Zn267      Zn  0.25040528  0.69559853  0.02515684     1.49110
Zn268      Zn  0.19268063  0.75558172  0.47167971     1.49480
O269        O  0.25238288  0.75162647  0.99924986    -1.84160
O270        O  0.31701233  0.83999637  0.02728729    -0.74790
O271        O  0.35456945  0.69411689  0.47035264    -0.74610
O272        O  0.24853118  0.70929202  0.08218294    -0.74130
O273        O  0.34993540  0.80910366  0.47160379    -0.74800
O274        O  0.25803076  0.78627604  0.09081825    -0.74400
O275        O  0.30910023  0.65557618  0.01090578    -0.74990
O276        O  0.14566403  0.70407687  0.48172451    -0.74380
O277        O  0.29021739  0.74348485  0.40942889    -0.75130
O278        O  0.19128429  0.65927743  0.01353008    -0.74520
O279        O  0.20923151  0.75362771  0.41491781    -0.74990
O280        O  0.15635802  0.81502191  0.48854497    -0.74900
O281        O  0.19774446  0.84904640  0.03624903    -0.74690
C282        C  0.34898587  0.84079706  0.99974267     0.77100
C283        C  0.34784437  0.65968444  0.99004820     0.77590
C284        C  0.25347598  0.74687087  0.10386449     0.76550
C285        C  0.15151128  0.66753253  0.99851358     0.76930
C286        C  0.24927325  0.74761277  0.39471296     0.78060
C287        C  0.16203901  0.84827436  0.01454061     0.77110
Zn288      Zn  0.25354037  0.68873850  0.27661892     1.49720
Zn289      Zn  0.31141419  0.74800214  0.21607654     1.49360
Zn290      Zn  0.19295565  0.73928305  0.21863548     1.49110
Zn291      Zn  0.24508943  0.80010733  0.28438678     1.49480
O292        O  0.25123280  0.74386083  0.24860290    -1.84160
O293        O  0.31048023  0.64674092  0.25665716    -0.74790
O294        O  0.29304070  0.75072978  0.16162221    -0.74610
O295        O  0.15354016  0.68222748  0.22660438    -0.74130
O296        O  0.35369239  0.68848513  0.21703041    -0.74800
O297        O  0.19290606  0.64959471  0.27074251    -0.74400
O298        O  0.21274931  0.73789950  0.16293473    -0.74990
O299        O  0.18798410  0.83905680  0.27344526    -0.74380
O300        O  0.34899835  0.80853828  0.23116549    -0.75130
O301        O  0.14747170  0.79461110  0.23174991    -0.74520
O302        O  0.30256813  0.84250688  0.27988568    -0.74990
O303        O  0.23875739  0.78368075  0.33872830    -0.74900
O304        O  0.25864710  0.70774465  0.33287256    -0.74690
C305        C  0.34724141  0.65117841  0.23357581     0.77100
C306        C  0.25317101  0.74487666  0.14495339     0.77590
C307        C  0.15753259  0.65061458  0.24896908     0.76550
C308        C  0.15150136  0.83273406  0.25295900     0.76930
C309        C  0.34013272  0.84267519  0.25702542     0.78060
C310        C  0.24856237  0.74617478  0.35327980     0.77110
C311        C  0.08169848  0.94699309  0.28271551    -0.01880
C312        C  0.05157138  0.95050561  0.25166992     0.07800
C313        C  0.05171722  0.91283945  0.22220430    -0.01990
C314        C  0.08426305  0.87457154  0.22216082    -0.02000
C315        C  0.11423113  0.87113954  0.25340946     0.07930
C316        C  0.11009880  0.90643448  0.28472108    -0.02190
Br317      Br  0.13943731  0.89853035  0.33264162    -0.00740
Br318      Br  0.08085320  0.99464205  0.32560680    -0.00810
Br319      Br  0.08863827  0.82931260  0.17728892    -0.00770
Br320      Br  0.00891233  0.91416790  0.18027296    -0.00750
C321        C  0.38996841  0.96755432  0.27534579    -0.01880
C322        C  0.43977389  0.95909433  0.26354269     0.07800
C323        C  0.45586036  0.91328954  0.26757665    -0.01990
C324        C  0.42507865  0.87585412  0.25771605    -0.02000
C325        C  0.37399462  0.88334653  0.26113284     0.07930
C326        C  0.35656474  0.92987449  0.27289583    -0.02190
Br327      Br  0.28769619  0.94397164  0.28228457    -0.00740
Br328      Br  0.36945455  0.52804257  0.30030329    -0.00810
Br329      Br  0.45430552  0.81422342  0.24945088    -0.00770
Br330      Br  0.48388173  0.90550143  0.31538509    -0.00750
C331        C  0.36779998  0.56628397  0.21193791    -0.01880
C332        C  0.38282801  0.61157810  0.22611944     0.07800
C333        C  0.43275581  0.61832178  0.23174130    -0.01990
C334        C  0.46529738  0.58023873  0.22425972    -0.02000
C335        C  0.44711086  0.53453533  0.22585930     0.07930
C336        C  0.40070573  0.52775276  0.21052820    -0.02190
Br337      Br  0.38460822  0.96824520  0.18402416    -0.00740
Br338      Br  0.30278731  0.55675063  0.19517218    -0.00810
Br339      Br  0.50940007  0.58919032  0.18128095    -0.00770
Br340      Br  0.45887407  0.67929065  0.24551389    -0.00750
C341        C  0.12651400  0.57599136  0.21859837    -0.01880
C342        C  0.12167811  0.61272644  0.24804712     0.07800
C343        C  0.08295427  0.61319111  0.27600618    -0.01990
C344        C  0.04936223  0.57616540  0.27507146    -0.02000
C345        C  0.05520296  0.53745093  0.24636185     0.07930
C346        C  0.09461975  0.53788361  0.21818367    -0.02190
Br347      Br  0.10333135  0.99008930  0.17573449    -0.00740
Br348      Br  0.17629835  0.57914886  0.17774027    -0.00810
Br349      Br  0.99630802  0.57881947  0.31408817    -0.00770
Br350      Br  0.07591401  0.66529770  0.31521477    -0.00750
C351        C  0.14143744  0.92269082  0.99082377    -0.01880
C352        C  0.12957100  0.88935645  0.01583707     0.07800
C353        C  0.08606518  0.89385956  0.53899638    -0.01990
C354        C  0.05460115  0.93282620  0.53783209    -0.02000
C355        C  0.06343821  0.96477252  0.00978022     0.07930
C356        C  0.10838609  0.95905822  0.98657052    -0.02190
Br357      Br  0.12716388  0.49715766  0.94632438    -0.00740
Br358      Br  0.20382216  0.91700817  0.96138539    -0.00810
Br359      Br  0.00499021  0.94454229  0.57889826    -0.00770
Br360      Br  0.06983636  0.84606896  0.57206204    -0.00750
C361        C  0.37129682  0.92300640  0.02312215    -0.01880
C362        C  0.38422445  0.88049980  0.00077603     0.07800
C363        C  0.43038778  0.87722447  0.48012714    -0.01990
C364        C  0.46091617  0.91683674  0.47979454    -0.02000
C365        C  0.44983465  0.95789504  0.00519644     0.07930
C366        C  0.40565078  0.95855097  0.02855999    -0.02190
Br367      Br  0.39091903  0.00567362  0.07087965    -0.00740
Br368      Br  0.30471068  0.93683638  0.04363616    -0.00810
Br369      Br  0.51239047  0.91571158  0.43976314    -0.00730
Br370      Br  0.45312603  0.81902180  0.45196177    -0.00750
C371        C  0.44539608  0.58631221  0.02654717    -0.01880
C372        C  0.44739042  0.54595376  0.99911782     0.07800
C373        C  0.41662487  0.54543116  0.46761462    -0.01990
C374        C  0.38663762  0.58427120  0.46328783    -0.02000
C375        C  0.38593771  0.62363959  0.99025661     0.07930
C376        C  0.41554518  0.62497577  0.02147573    -0.02190
Br377      Br  0.41250259  0.67969399  0.05865394    -0.00740
Br378      Br  0.47523029  0.58775762  0.07497918    -0.00810
Br379      Br  0.34459516  0.58348431  0.42093139    -0.00770
Br380      Br  0.41422364  0.49266435  0.42896812    -0.00750
C381        C  0.10645198  0.61211538  0.03613465    -0.01880
C382        C  0.11183153  0.63352930  0.00204353     0.07800
C383        C  0.08416141  0.61776655  0.47084786    -0.01990
C384        C  0.05419292  0.57825260  0.47286819    -0.02000
C385        C  0.05399159  0.55272140  0.00553066     0.07930
C386        C  0.08157229  0.56989282  0.03681946    -0.02190
Br387      Br  0.08732763  0.53665678  0.08138736    -0.00740
Br388      Br  0.13166100  0.64191929  0.08287050    -0.00810
Br389      Br  0.02407690  0.55380114  0.42674463    -0.00770
Br390      Br  0.09089045  0.64692394  0.42375558    -0.00750
C391        C  0.02910706  0.00607014  0.00619462     0.00530
C392        C  0.47848050  0.50300246  0.50403400     0.00530
C393        C  0.02328861  0.99496409  0.74809116     0.00530
C394        C  0.47252556  0.99633695  0.74611145     0.00530
Zn395      Zn  0.25584643  0.80488394  0.53766910     1.49720
Zn396      Zn  0.31051596  0.74947670  0.96364537     1.49360
Zn397      Zn  0.25040528  0.69559856  0.52515684     1.49110
Zn398      Zn  0.19268063  0.75558168  0.97167970     1.49480
O399        O  0.25238288  0.75162652  0.49924987    -1.84160
O400        O  0.31701233  0.83999640  0.52728731    -0.74790
O401        O  0.35456944  0.69411684  0.97035264    -0.74610
O402        O  0.24853118  0.70929204  0.58218293    -0.74130
O403        O  0.34993541  0.80910361  0.97160378    -0.74800
O404        O  0.25803076  0.78627606  0.59081826    -0.74400
O405        O  0.30910023  0.65557622  0.51090577    -0.74990
O406        O  0.14566404  0.70407683  0.98172450    -0.74380
O407        O  0.29021739  0.74348481  0.90942889    -0.75130
O408        O  0.19128430  0.65927746  0.51353007    -0.74520
O409        O  0.20923152  0.75362767  0.91491781    -0.74990
O410        O  0.15635802  0.81502186  0.98854496    -0.74900
O411        O  0.19774447  0.84904644  0.53624904    -0.74690
C412        C  0.34898587  0.84079710  0.49974269     0.77100
C413        C  0.34784438  0.65968449  0.49004819     0.77590
C414        C  0.25347598  0.74687088  0.60386449     0.76550
C415        C  0.15151128  0.66753256  0.49851358     0.76930
C416        C  0.24927326  0.74761273  0.89471296     0.78060
C417        C  0.16203901  0.84827441  0.51454062     0.77110
Zn418      Zn  0.25354039  0.68873847  0.77661891     1.49720
Zn419      Zn  0.31141420  0.74800211  0.71607654     1.49360
Zn420      Zn  0.19295566  0.73928302  0.71863547     1.49110
Zn421      Zn  0.24508944  0.80010730  0.78438678     1.49480
O422        O  0.25123282  0.74386080  0.74860289    -1.84160
O423        O  0.31048025  0.64674089  0.75665714    -0.74790
O424        O  0.29304071  0.75072977  0.66162221    -0.74610
O425        O  0.15354018  0.68222745  0.72660437    -0.74130
O426        O  0.35369241  0.68848511  0.71703040    -0.74800
O427        O  0.19290608  0.64959467  0.77074249    -0.74400
O428        O  0.21274932  0.73789949  0.66293473    -0.74990
O429        O  0.18798411  0.83905677  0.77344526    -0.74380
O430        O  0.34899836  0.80853825  0.73116549    -0.75130
O431        O  0.14747170  0.79461107  0.73174991    -0.74520
O432        O  0.30256814  0.84250685  0.77988567    -0.74990
O433        O  0.23875740  0.78368072  0.83872829    -0.74900
O434        O  0.25864712  0.70774461  0.83287255    -0.74690
C435        C  0.34724143  0.65117838  0.73357580     0.77100
C436        C  0.25317101  0.74487665  0.64495339     0.77590
C437        C  0.15753261  0.65061454  0.74896907     0.76550
C438        C  0.15150137  0.83273402  0.75295900     0.76930
C439        C  0.34013274  0.84267516  0.75702542     0.78060
C440        C  0.24856238  0.74617474  0.85327980     0.77110
C441        C  0.08169849  0.94699305  0.78271551    -0.01880
C442        C  0.05157139  0.95050558  0.75166992     0.07800
C443        C  0.05171723  0.91283941  0.72220430    -0.01990
C444        C  0.08426305  0.87457150  0.72216082    -0.02000
C445        C  0.11423113  0.87113950  0.75340946     0.07930
C446        C  0.11009881  0.90643445  0.78472108    -0.02190
Br447      Br  0.13943732  0.89853031  0.83264162    -0.00740
Br448      Br  0.08085323  0.99464202  0.82560679    -0.00810
Br449      Br  0.08863826  0.82931255  0.67728893    -0.00770
Br450      Br  0.00891233  0.91416786  0.68027296    -0.00750
C451        C  0.38996841  0.96755430  0.77534577    -0.01880
C452        C  0.43977389  0.95909431  0.76354269     0.07800
C453        C  0.45586036  0.91328952  0.76757666    -0.01990
C454        C  0.42507866  0.87585409  0.75771606    -0.02000
C455        C  0.37399463  0.88334651  0.76113283     0.07930
C456        C  0.35656475  0.92987446  0.77289582    -0.02190
Br457      Br  0.28769619  0.94397162  0.78228453    -0.00740
Br458      Br  0.36945454  0.52804255  0.80030326    -0.00810
Br459      Br  0.45430553  0.81422339  0.74945092    -0.00770
Br460      Br  0.48388174  0.90550144  0.81538510    -0.00750
C461        C  0.36780001  0.56628395  0.71193789    -0.01880
C462        C  0.38282803  0.61157807  0.72611943     0.07800
C463        C  0.43275583  0.61832175  0.73174130    -0.01990
C464        C  0.46529740  0.58023870  0.72425972    -0.02000
C465        C  0.44711088  0.53453530  0.72585929     0.07930
C466        C  0.40070575  0.52775274  0.71052818    -0.02190
Br467      Br  0.38460825  0.96824518  0.68402414    -0.00740
Br468      Br  0.30278734  0.55675061  0.69517214    -0.00810
Br469      Br  0.50940009  0.58919031  0.68128095    -0.00770
Br470      Br  0.45887408  0.67929063  0.74551391    -0.00750
C471        C  0.12651402  0.57599132  0.71859836    -0.01880
C472        C  0.12167813  0.61272641  0.74804711     0.07800
C473        C  0.08295429  0.61319107  0.77600617    -0.01990
C474        C  0.04936225  0.57616537  0.77507146    -0.02000
C475        C  0.05520297  0.53745090  0.74636184     0.07930
C476        C  0.09461976  0.53788358  0.71818366    -0.02190
Br477      Br  0.10333135  0.99008927  0.67573448    -0.00740
Br478      Br  0.17629837  0.57914881  0.67774026    -0.00810
Br479      Br  0.99630805  0.57881944  0.81408816    -0.00770
Br480      Br  0.07591404  0.66529767  0.81521476    -0.00750
C481        C  0.14143743  0.92269086  0.49082377    -0.01880
C482        C  0.12957101  0.88935650  0.51583708     0.07800
C483        C  0.08606517  0.89385951  0.03899637    -0.01990
C484        C  0.05460115  0.93282615  0.03783209    -0.02000
C485        C  0.06343820  0.96477255  0.50978022     0.07930
C486        C  0.10838607  0.95905824  0.48657051    -0.02190
Br487      Br  0.12716381  0.49715764  0.44632433    -0.00740
Br488      Br  0.20382215  0.91700820  0.46138538    -0.00810
Br489      Br  0.00499021  0.94454224  0.07889826    -0.00770
Br490      Br  0.06983634  0.84606889  0.07206201    -0.00750
C491        C  0.37129682  0.92300644  0.52312216    -0.01880
C492        C  0.38422445  0.88049984  0.50077604     0.07800
C493        C  0.43038779  0.87722443  0.98012712    -0.01990
C494        C  0.46091618  0.91683670  0.97979454    -0.02000
C495        C  0.44983464  0.95789508  0.50519644     0.07930
C496        C  0.40565077  0.95855101  0.52855999    -0.02190
Br497      Br  0.39091903  0.00567368  0.57087964    -0.00740
Br498      Br  0.30471068  0.93683642  0.54363618    -0.00810
Br499      Br  0.51239049  0.91571154  0.93976315    -0.00730
Br500      Br  0.45312603  0.81902177  0.95196175    -0.00750
C501        C  0.44539609  0.58631226  0.52654716    -0.01880
C502        C  0.44739042  0.54595380  0.49911781     0.07800
C503        C  0.41662488  0.54543112  0.96761462    -0.01990
C504        C  0.38663763  0.58427116  0.96328783    -0.02000
C505        C  0.38593772  0.62363964  0.49025660     0.07930
C506        C  0.41554519  0.62497582  0.52147572    -0.02190
Br507      Br  0.41250262  0.67969405  0.55865392    -0.00740
Br508      Br  0.47523030  0.58775766  0.57497917    -0.00810
Br509      Br  0.34459518  0.58348428  0.92093139    -0.00770
Br510      Br  0.41422366  0.49266432  0.92896812    -0.00750
C511        C  0.10645200  0.61211540  0.53613465    -0.01880
C512        C  0.11183154  0.63352933  0.50204353     0.07800
C513        C  0.08416141  0.61776651  0.97084786    -0.01990
C514        C  0.05419292  0.57825256  0.97286819    -0.02000
C515        C  0.05399160  0.55272143  0.50553065     0.07930
C516        C  0.08157231  0.56989285  0.53681945    -0.02190
Br517      Br  0.08732764  0.53665680  0.58138734    -0.00740
Br518      Br  0.13166103  0.64191930  0.58287049    -0.00810
Br519      Br  0.02407692  0.55380107  0.92674464    -0.00770
Br520      Br  0.09089047  0.64692388  0.92375557    -0.00750
C521        C  0.52911288  0.50607564  0.50621278     0.00530
C522        C  0.97847591  0.00299764  0.00400365     0.00530
C523        C  0.52329301  0.49496506  0.24808687     0.00530
C524        C  0.97252890  0.49633044  0.24611165     0.00530
Zn525      Zn  0.75583235  0.30488246  0.03772449     1.49720
Zn526      Zn  0.81051408  0.24950103  0.46370229     1.49360
Zn527      Zn  0.75039495  0.19559840  0.02520177     1.49110
Zn528      Zn  0.69268031  0.25558977  0.47172434     1.49480
O529        O  0.75237609  0.25163179  0.99929949    -1.84160
O530        O  0.81701274  0.33998237  0.02737821    -0.74790
O531        O  0.85456719  0.19413913  0.47040802    -0.74610
O532        O  0.74852341  0.20928207  0.08222846    -0.74130
O533        O  0.84992807  0.30913237  0.47168411    -0.74800
O534        O  0.75798438  0.28627029  0.09086996    -0.74400
O535        O  0.80909333  0.15558138  0.01094716    -0.74990
O536        O  0.64565438  0.20409460  0.48177763    -0.74380
O537        O  0.79022740  0.24351597  0.40948005    -0.75130
O538        O  0.69126865  0.15928052  0.01357562    -0.74520
O539        O  0.70923670  0.25361847  0.41496147    -0.74990
O540        O  0.65637207  0.31504139  0.48857724    -0.74900
O541        O  0.69775000  0.34905822  0.03628967    -0.74690
C542        C  0.84898837  0.34080342  0.99983944     0.77100
C543        C  0.84784163  0.15969974  0.99009629     0.77590
C544        C  0.75344699  0.24686235  0.10391268     0.76550
C545        C  0.65149597  0.16754526  0.99856185     0.76930
C546        C  0.74928247  0.24762132  0.39475967     0.78060
C547        C  0.66205380  0.34829342  0.01457320     0.77110
Zn548      Zn  0.75354812  0.18873827  0.27666254     1.49720
Zn549      Zn  0.81140393  0.24800753  0.21611391     1.49360
Zn550      Zn  0.69294860  0.23928392  0.21868809     1.49110
Zn551      Zn  0.74509534  0.30011234  0.28443031     1.49480
O552        O  0.75123152  0.24386276  0.24864867    -1.84160
O553        O  0.81049223  0.14674654  0.25669088    -0.74790
O554        O  0.79301833  0.25072835  0.16166482    -0.74610
O555        O  0.65353272  0.18223262  0.22666297    -0.74130
O556        O  0.85368860  0.18849707  0.21705913    -0.74800
O557        O  0.69291617  0.14958602  0.27078462    -0.74400
O558        O  0.71272886  0.23788895  0.16298535    -0.74990
O559        O  0.68799394  0.33906888  0.27348425    -0.74380
O560        O  0.84898829  0.30854403  0.23119308    -0.75130
O561        O  0.64747381  0.29461750  0.23179733    -0.74520
O562        O  0.80257812  0.34250819  0.27992619    -0.74990
O563        O  0.73876797  0.28368546  0.33877255    -0.74900
O564        O  0.75865633  0.20774829  0.33291876    -0.74690
C565        C  0.84724642  0.15118895  0.23360336     0.77100
C566        C  0.75314692  0.24486791  0.14500022     0.77590
C567        C  0.65753516  0.15061144  0.24901851     0.76550
C568        C  0.65151116  0.33274596  0.25299759     0.76930
C569        C  0.84013410  0.34267808  0.25705724     0.78060
C570        C  0.74857348  0.24618013  0.35332531     0.77110
C571        C  0.58170628  0.44701344  0.28272500    -0.01880
C572        C  0.55158175  0.45051314  0.25167596     0.07800
C573        C  0.55173613  0.41284044  0.22221584    -0.01990
C574        C  0.58428953  0.37458008  0.22217972    -0.02000
C575        C  0.61424886  0.37115612  0.25343492     0.07930
C576        C  0.61011181  0.40645991  0.28473989    -0.02190
Br577      Br  0.63945292  0.39857659  0.33266302    -0.00740
Br578      Br  0.58084576  0.49467124  0.32560997    -0.00810
Br579      Br  0.58869396  0.32932555  0.17730501    -0.00770
Br580      Br  0.50892685  0.41414628  0.18028475    -0.00750
C581        C  0.88998620  0.46755254  0.27537473    -0.01880
C582        C  0.93978631  0.45908958  0.26355433     0.07800
C583        C  0.95587285  0.41328086  0.26757380    -0.01990
C584        C  0.92508346  0.37585177  0.25771485    -0.02000
C585        C  0.87400015  0.38334695  0.26115860     0.07930
C586        C  0.85657900  0.42987468  0.27293605    -0.02190
Br587      Br  0.78771516  0.44397522  0.28235681    -0.00740
Br588      Br  0.86942443  0.02803914  0.30027777    -0.00810
Br589      Br  0.95430848  0.31422169  0.24941610    -0.00770
Br590      Br  0.98390385  0.40547163  0.31537477    -0.00750
C591        C  0.86781493  0.06630567  0.21193277    -0.01880
C592        C  0.88283599  0.11159311  0.22613698     0.07800
C593        C  0.93276105  0.11833636  0.23176972    -0.01990
C594        C  0.96530563  0.08025656  0.22428103    -0.02000
C595        C  0.94711918  0.03455014  0.22586093     0.07930
C596        C  0.90072100  0.02777402  0.21051658    -0.02190
Br597      Br  0.88458615  0.46821535  0.18405347    -0.00740
Br598      Br  0.80281145  0.05678278  0.19514584    -0.00810
Br599      Br  0.00942166  0.08923202  0.18131538    -0.00770
Br600      Br  0.95887180  0.17930353  0.24556162    -0.00750
C601        C  0.62652290  0.07599233  0.21863476    -0.01880
C602        C  0.62168440  0.11271960  0.24809028     0.07800
C603        C  0.58295435  0.11317889  0.27604360    -0.01990
C604        C  0.54936026  0.07615449  0.27509738    -0.02000
C605        C  0.55520303  0.03744844  0.24638014     0.07930
C606        C  0.59462515  0.03788665  0.21820759    -0.02190
Br607      Br  0.60332414  0.49007483  0.17571920    -0.00740
Br608      Br  0.67631121  0.07916093  0.17778158    -0.00810
Br609      Br  0.49630106  0.07879659  0.31410945    -0.00770
Br610      Br  0.57590678  0.16527754  0.31525856    -0.00750
C611        C  0.64146375  0.42272184  0.99086943    -0.01880
C612        C  0.62958891  0.38937642  0.01587060     0.07800
C613        C  0.58607352  0.39386708  0.53901747    -0.01990
C614        C  0.55461627  0.43283878  0.53786031    -0.02000
C615        C  0.56344614  0.46478011  0.00980331     0.07930
C616        C  0.60839400  0.45906600  0.98659372    -0.02190
Br617      Br  0.62719111  0.99719453  0.94633955    -0.00740
Br618      Br  0.70388755  0.41709175  0.96148547    -0.00810
Br619      Br  0.50504179  0.44457038  0.57894965    -0.00770
Br620      Br  0.56982362  0.34605567  0.57205886    -0.00750
C621        C  0.87136493  0.42298616  0.02329996    -0.01880
C622        C  0.88424287  0.38049947  0.00089633     0.07800
C623        C  0.93037318  0.37723674  0.48019518    -0.01990
C624        C  0.96090712  0.41684297  0.47985276    -0.02000
C625        C  0.94985207  0.45789904  0.00526101     0.07930
C626        C  0.90571451  0.45854996  0.02867722    -0.02190
Br627      Br  0.89105415  0.50572203  0.07097688    -0.00740
Br628      Br  0.80484784  0.43676628  0.04400678    -0.00810
Br629      Br  0.01235926  0.41571890  0.43980160    -0.00730
Br630      Br  0.95306658  0.31905461  0.45196816    -0.00750
C631        C  0.94535374  0.08626627  0.02659159    -0.01880
C632        C  0.94739774  0.04596050  0.99910983     0.07800
C633        C  0.91668177  0.04549111  0.46758169    -0.01990
C634        C  0.88672247  0.08435342  0.46326363    -0.02000
C635        C  0.88593861  0.12365702  0.99030209     0.07930
C636        C  0.91546557  0.12492123  0.02156694    -0.02190
Br637      Br  0.91225615  0.17951784  0.05887045    -0.00740
Br638      Br  0.97517732  0.08762848  0.07502351    -0.00810
Br639      Br  0.84482808  0.08367986  0.42082422    -0.00770
Br640      Br  0.91429958  0.99275490  0.42890283    -0.00750
C641        C  0.60642439  0.11211405  0.03616450    -0.01880
C642        C  0.61181256  0.13354273  0.00208086     0.07800
C643        C  0.58415493  0.11778828  0.47087621    -0.01990
C644        C  0.55419469  0.07826634  0.47287824    -0.02000
C645        C  0.55398144  0.05272232  0.00553414     0.07930
C646        C  0.58154787  0.06988689  0.03683357    -0.02190
Br647      Br  0.58731259  0.03662272  0.08138528    -0.00740
Br648      Br  0.63162337  0.14190107  0.08290954    -0.00810
Br649      Br  0.52412524  0.05381698  0.42673415    -0.00770
Br650      Br  0.59089462  0.14696675  0.42379386    -0.00750
C651        C  0.52911288  0.50607561  0.00621279     0.00530
C652        C  0.97847591  0.00299768  0.50400365     0.00530
C653        C  0.52329303  0.49496503  0.74808686     0.00530
C654        C  0.97252891  0.49633042  0.74611164     0.00530
Zn655      Zn  0.75583235  0.30488249  0.53772450     1.49720
Zn656      Zn  0.81051409  0.24950099  0.96370228     1.49360
Zn657      Zn  0.75039495  0.19559844  0.52520176     1.49110
Zn658      Zn  0.69268031  0.25558973  0.97172433     1.49480
O659        O  0.75237608  0.25163183  0.49929950    -1.84160
O660        O  0.81701275  0.33998241  0.52737822    -0.74790
O661        O  0.85456718  0.19413908  0.97040802    -0.74610
O662        O  0.74852342  0.20928209  0.58222845    -0.74130
O663        O  0.84992808  0.30913232  0.97168410    -0.74800
O664        O  0.75798438  0.28627031  0.59086997    -0.74400
O665        O  0.80909334  0.15558142  0.51094715    -0.74990
O666        O  0.64565438  0.20409456  0.98177762    -0.74380
O667        O  0.79022741  0.24351593  0.90948004    -0.75130
O668        O  0.69126866  0.15928055  0.51357561    -0.74520
O669        O  0.70923670  0.25361843  0.91496146    -0.74990
O670        O  0.65637207  0.31504134  0.98857723    -0.74900
O671        O  0.69775000  0.34905826  0.53628969    -0.74690
C672        C  0.84898837  0.34080346  0.49983945     0.77100
C673        C  0.84784163  0.15969978  0.49009628     0.77590
C674        C  0.75344699  0.24686236  0.60391268     0.76550
C675        C  0.65149597  0.16754529  0.49856184     0.76930
C676        C  0.74928248  0.24762127  0.89475967     0.78060
C677        C  0.66205380  0.34829347  0.51457321     0.77110
Zn678      Zn  0.75354813  0.18873823  0.77666253     1.49720
Zn679      Zn  0.81140395  0.24800750  0.71611390     1.49360
Zn680      Zn  0.69294862  0.23928389  0.71868808     1.49110
Zn681      Zn  0.74509536  0.30011231  0.78443031     1.49480
O682        O  0.75123154  0.24386273  0.74864866    -1.84160
O683        O  0.81049225  0.14674651  0.75669087    -0.74790
O684        O  0.79301834  0.25072835  0.66166481    -0.74610
O685        O  0.65353274  0.18223258  0.72666295    -0.74130
O686        O  0.85368861  0.18849705  0.71705911    -0.74800
O687        O  0.69291619  0.14958598  0.77078461    -0.74400
O688        O  0.71272887  0.23788894  0.66298534    -0.74990
O689        O  0.68799395  0.33906884  0.77348425    -0.74380
O690        O  0.84898831  0.30854400  0.73119308    -0.75130
O691        O  0.64747381  0.29461747  0.73179733    -0.74520
O692        O  0.80257812  0.34250817  0.77992619    -0.74990
O693        O  0.73876798  0.28368542  0.83877254    -0.74900
O694        O  0.75865634  0.20774825  0.83291876    -0.74690
C695        C  0.84724644  0.15118892  0.73360334     0.77100
C696        C  0.75314692  0.24486791  0.64500022     0.77590
C697        C  0.65753518  0.15061140  0.74901850     0.76550
C698        C  0.65151117  0.33274592  0.75299759     0.76930
C699        C  0.84013411  0.34267805  0.75705724     0.78060
C700        C  0.74857349  0.24618010  0.85332530     0.77110
C701        C  0.58170629  0.44701341  0.78272500    -0.01880
C702        C  0.55158176  0.45051311  0.75167596     0.07800
C703        C  0.55173613  0.41284040  0.72221584    -0.01990
C704        C  0.58428953  0.37458004  0.72217973    -0.02000
C705        C  0.61424886  0.37115608  0.75343493     0.07930
C706        C  0.61011182  0.40645987  0.78473989    -0.02190
Br707      Br  0.63945293  0.39857655  0.83266302    -0.00740
Br708      Br  0.58084578  0.49467122  0.82560997    -0.00810
Br709      Br  0.58869395  0.32932549  0.67730502    -0.00770
Br710      Br  0.50892685  0.41414625  0.68028475    -0.00750
C711        C  0.88998620  0.46755252  0.77537471    -0.01880
C712        C  0.93978632  0.45908956  0.76355432     0.07800
C713        C  0.95587286  0.41328084  0.76757381    -0.01990
C714        C  0.92508347  0.37585174  0.75771486    -0.02000
C715        C  0.87400016  0.38334692  0.76115860     0.07930
C716        C  0.85657900  0.42987466  0.77293603    -0.02190
Br717      Br  0.78771516  0.44397520  0.78235677    -0.00740
Br718      Br  0.86942442  0.02803912  0.80027775    -0.00810
Br719      Br  0.95430849  0.31422167  0.74941614    -0.00770
Br720      Br  0.98390386  0.40547164  0.81537479    -0.00750
C721        C  0.86781496  0.06630564  0.71193274    -0.01880
C722        C  0.88283601  0.11159308  0.72613697     0.07800
C723        C  0.93276107  0.11833634  0.73176972    -0.01990
C724        C  0.96530565  0.08025653  0.72428103    -0.02000
C725        C  0.94711920  0.03455011  0.72586092     0.07930
C726        C  0.90072103  0.02777399  0.71051656    -0.02190
Br727      Br  0.88458618  0.46821533  0.68405345    -0.00740
Br728      Br  0.80281148  0.05678276  0.69514580    -0.00810
Br729      Br  0.00942167  0.08923201  0.68131538    -0.00770
Br730      Br  0.95887181  0.17930350  0.74556163    -0.00750
C731        C  0.62652291  0.07599229  0.71863475    -0.01880
C732        C  0.62168442  0.11271957  0.74809027     0.07800
C733        C  0.58295437  0.11317886  0.77604359    -0.01990
C734        C  0.54936028  0.07615445  0.77509737    -0.02000
C735        C  0.55520305  0.03744841  0.74638013     0.07930
C736        C  0.59462517  0.03788662  0.71820758    -0.02190
Br737      Br  0.60332414  0.49007479  0.67571919    -0.00740
Br738      Br  0.67631123  0.07916089  0.67778157    -0.00810
Br739      Br  0.49630108  0.07879656  0.81410944    -0.00770
Br740      Br  0.57590681  0.16527751  0.81525855    -0.00750
C741        C  0.64146374  0.42272187  0.49086942    -0.01880
C742        C  0.62958892  0.38937647  0.51587061     0.07800
C743        C  0.58607351  0.39386703  0.03901745    -0.01990
C744        C  0.55461627  0.43283873  0.03786030    -0.02000
C745        C  0.56344613  0.46478014  0.50980331     0.07930
C746        C  0.60839398  0.45906602  0.48659371    -0.02190
Br747      Br  0.62719104  0.99719451  0.44633950    -0.00740
Br748      Br  0.70388753  0.41709178  0.46148545    -0.00810
Br749      Br  0.50504180  0.44457033  0.07894965    -0.00770
Br750      Br  0.56982359  0.34605560  0.07205883    -0.00750
C751        C  0.87136493  0.42298620  0.52329996    -0.01880
C752        C  0.88424287  0.38049951  0.50089634     0.07800
C753        C  0.93037318  0.37723670  0.98019517    -0.01990
C754        C  0.96090713  0.41684293  0.97985276    -0.02000
C755        C  0.94985207  0.45789908  0.50526101     0.07930
C756        C  0.90571450  0.45855001  0.52867722    -0.02190
Br757      Br  0.89105414  0.50572209  0.57097688    -0.00740
Br758      Br  0.80484783  0.43676632  0.54400679    -0.00810
Br759      Br  0.01235928  0.41571886  0.93980161    -0.00730
Br760      Br  0.95306658  0.31905458  0.95196814    -0.00750
C761        C  0.94535375  0.08626632  0.52659157    -0.01880
C762        C  0.94739774  0.04596054  0.49910982     0.07800
C763        C  0.91668178  0.04549107  0.96758169    -0.01990
C764        C  0.88672248  0.08435338  0.96326363    -0.02000
C765        C  0.88593862  0.12365707  0.49030208     0.07930
C766        C  0.91546559  0.12492128  0.52156693    -0.02190
Br767      Br  0.91225620  0.17951791  0.55887042    -0.00740
Br768      Br  0.97517733  0.08762853  0.57502349    -0.00810
Br769      Br  0.84482811  0.08367984  0.92082421    -0.00770
Br770      Br  0.91429960  0.99275487  0.92890283    -0.00750
C771        C  0.60642441  0.11211407  0.53616449    -0.01880
C772        C  0.61181257  0.13354276  0.50208086     0.07800
C773        C  0.58415493  0.11778824  0.97087621    -0.01990
C774        C  0.55419469  0.07826630  0.97287825    -0.02000
C775        C  0.55398144  0.05272235  0.50553413     0.07930
C776        C  0.58154789  0.06988691  0.53683356    -0.02190
Br777      Br  0.58731260  0.03662273  0.58138527    -0.00740
Br778      Br  0.63162340  0.14190108  0.58290953    -0.00810
Br779      Br  0.52412527  0.05381691  0.92673416    -0.00770
Br780      Br  0.59089463  0.14696669  0.92379385    -0.00750
C781        C  0.52910706  0.00607016  0.50619462     0.00530
C782        C  0.97848051  0.50300240  0.00403402     0.00530
C783        C  0.52328860  0.99496410  0.24809114     0.00530
C784        C  0.97252555  0.99633702  0.24611147     0.00530
Zn785      Zn  0.75584645  0.80488389  0.03766906     1.49720
Zn786      Zn  0.81051598  0.74947674  0.46364535     1.49360
Zn787      Zn  0.75040530  0.69559852  0.02515681     1.49110
Zn788      Zn  0.69268066  0.75558172  0.47167968     1.49480
O789        O  0.75238291  0.75162647  0.99924983    -1.84160
O790        O  0.81701234  0.83999637  0.02728726    -0.74790
O791        O  0.85456948  0.69411688  0.47035261    -0.74610
O792        O  0.74853121  0.70929201  0.08218291    -0.74130
O793        O  0.84993543  0.80910365  0.47160377    -0.74800
O794        O  0.75803080  0.78627604  0.09081822    -0.74400
O795        O  0.80910025  0.65557617  0.01090575    -0.74990
O796        O  0.64566406  0.70407687  0.48172448    -0.74380
O797        O  0.79021742  0.74348485  0.40942887    -0.75130
O798        O  0.69128431  0.65927743  0.01353006    -0.74520
O799        O  0.70923155  0.75362771  0.41491778    -0.74990
O800        O  0.65635805  0.81502189  0.48854494    -0.74900
O801        O  0.69774448  0.84904638  0.03624901    -0.74690
C802        C  0.84898588  0.84079706  0.99974264     0.77100
C803        C  0.84784440  0.65968443  0.99004817     0.77590
C804        C  0.75347602  0.74687086  0.10386446     0.76550
C805        C  0.65151130  0.66753252  0.99851355     0.76930
C806        C  0.74927328  0.74761277  0.39471293     0.78060
C807        C  0.66203902  0.84827434  0.01454059     0.77110
Zn808      Zn  0.75354039  0.68873850  0.27661889     1.49720
Zn809      Zn  0.81141423  0.74800214  0.21607652     1.49360
Zn810      Zn  0.69295569  0.73928305  0.21863545     1.49110
Zn811      Zn  0.74508946  0.80010733  0.28438676     1.49480
O812        O  0.75123283  0.74386083  0.24860287    -1.84160
O813        O  0.81048025  0.64674092  0.25665713    -0.74790
O814        O  0.79304074  0.75072978  0.16162218    -0.74610
O815        O  0.65354019  0.68222749  0.22660435    -0.74130
O816        O  0.85369243  0.68848513  0.21703039    -0.74800
O817        O  0.69290608  0.64959471  0.27074248    -0.74400
O818        O  0.71274935  0.73789950  0.16293470    -0.74990
O819        O  0.68798412  0.83905680  0.27344524    -0.74380
O820        O  0.84899839  0.80853828  0.23116547    -0.75130
O821        O  0.64747174  0.79461111  0.23174987    -0.74520
O822        O  0.80256814  0.84250689  0.27988564    -0.74990
O823        O  0.73875743  0.78368075  0.33872827    -0.74900
O824        O  0.75864713  0.70774465  0.33287253    -0.74690
C825        C  0.84724144  0.65117841  0.23357579     0.77100
C826        C  0.75317105  0.74487665  0.14495336     0.77590
C827        C  0.65753261  0.65061459  0.24896906     0.76550
C828        C  0.65150139  0.83273406  0.25295896     0.76930
C829        C  0.84013275  0.84267520  0.25702539     0.78060
C830        C  0.74856240  0.74617478  0.35327977     0.77110
C831        C  0.58169849  0.94699307  0.28271549    -0.01880
C832        C  0.55157139  0.95050559  0.25166989     0.07800
C833        C  0.55171725  0.91283944  0.22220426    -0.01990
C834        C  0.58426309  0.87457154  0.22216078    -0.02000
C835        C  0.61423116  0.87113954  0.25340942     0.07930
C836        C  0.61009882  0.90643448  0.28472105    -0.02190
Br837      Br  0.63943734  0.89853035  0.33264159    -0.00740
Br838      Br  0.58085316  0.99464202  0.32560678    -0.00810
Br839      Br  0.58863833  0.82931261  0.17728887    -0.00770
Br840      Br  0.50891236  0.91416789  0.18027292    -0.00750
C841        C  0.88996836  0.96755436  0.27534572    -0.01880
C842        C  0.93977386  0.95909438  0.26354269     0.07800
C843        C  0.95586033  0.91328961  0.26757672    -0.01990
C844        C  0.92507865  0.87585415  0.25771612    -0.02000
C845        C  0.87399462  0.88334655  0.26113281     0.07930
C846        C  0.85656471  0.92987451  0.27289574    -0.02190
Br847      Br  0.78769614  0.94397165  0.28228435    -0.00740
Br848      Br  0.86945453  0.52804256  0.30030327    -0.00810
Br849      Br  0.95430554  0.81422345  0.24945108    -0.00770
Br850      Br  0.98388169  0.90550160  0.31538518    -0.00750
C851        C  0.86780000  0.56628397  0.21193789    -0.01880
C852        C  0.88282803  0.61157809  0.22611942     0.07800
C853        C  0.93275583  0.61832177  0.23174129    -0.01990
C854        C  0.96529739  0.58023871  0.22425971    -0.02000
C855        C  0.94711086  0.53453532  0.22585930     0.07930
C856        C  0.90070574  0.52775275  0.21052819    -0.02190
Br857      Br  0.88460833  0.96824525  0.18402407    -0.00740
Br858      Br  0.80278733  0.55675063  0.19517214    -0.00810
Br859      Br  0.00940009  0.58919029  0.18128094    -0.00770
Br860      Br  0.95887409  0.67929064  0.24551388    -0.00750
C861        C  0.62651401  0.57599137  0.21859834    -0.01880
C862        C  0.62167813  0.61272646  0.24804710     0.07800
C863        C  0.58295429  0.61319112  0.27600616    -0.01990
C864        C  0.54936224  0.57616542  0.27507145    -0.02000
C865        C  0.55520296  0.53745095  0.24636183     0.07930
C866        C  0.59461975  0.53788363  0.21818365    -0.02190
Br867      Br  0.60333139  0.99008928  0.17573448    -0.00740
Br868      Br  0.67629836  0.57914886  0.17774025    -0.00810
Br869      Br  0.49630805  0.57881949  0.31408816    -0.00770
Br870      Br  0.57591404  0.66529772  0.31521475    -0.00750
C871        C  0.64143746  0.92269082  0.99082377    -0.01880
C872        C  0.62957101  0.88935643  0.01583705     0.07800
C873        C  0.58606519  0.89385954  0.53899636    -0.01990
C874        C  0.55460116  0.93282618  0.53783208    -0.02000
C875        C  0.56343822  0.96477251  0.00978023     0.07930
C876        C  0.60838611  0.95905823  0.98657053    -0.02190
Br877      Br  0.62716386  0.49715766  0.94632435    -0.00740
Br878      Br  0.70382218  0.91700817  0.96138538    -0.00810
Br879      Br  0.50499023  0.94454227  0.57889826    -0.00770
Br880      Br  0.56983636  0.84606892  0.57206200    -0.00750
C881        C  0.87129682  0.92300640  0.02312212    -0.01880
C882        C  0.88422446  0.88049980  0.00077600     0.07800
C883        C  0.93038779  0.87722447  0.48012712    -0.01990
C884        C  0.96091618  0.91683675  0.47979453    -0.02000
C885        C  0.94983465  0.95789505  0.00519642     0.07930
C886        C  0.90565077  0.95855098  0.02855996    -0.02190
Br887      Br  0.89091901  0.00567363  0.07087962    -0.00740
Br888      Br  0.80471067  0.93683638  0.04363611    -0.00810
Br889      Br  0.01239047  0.91571160  0.43976313    -0.00730
Br890      Br  0.95312606  0.81902181  0.45196176    -0.00750
C891        C  0.94539608  0.58631220  0.02654717    -0.01880
C892        C  0.94739043  0.54595374  0.99911782     0.07800
C893        C  0.91662488  0.54543114  0.46761462    -0.01990
C894        C  0.88663764  0.58427118  0.46328781    -0.02000
C895        C  0.88593773  0.62363958  0.99025658     0.07930
C896        C  0.91554519  0.62497576  0.02147572    -0.02190
Br897      Br  0.91250260  0.67969399  0.05865391    -0.00740
Br898      Br  0.97523027  0.58775761  0.07497919    -0.00810
Br899      Br  0.84459518  0.58348429  0.42093137    -0.00770
Br900      Br  0.91422365  0.49266433  0.42896812    -0.00750
C901        C  0.60645200  0.61211539  0.03613463    -0.01880
C902        C  0.61183155  0.63352930  0.00204350     0.07800
C903        C  0.58416142  0.61776656  0.47084784    -0.01990
C904        C  0.55419292  0.57825261  0.47286817    -0.02000
C905        C  0.55399160  0.55272141  0.00553064     0.07930
C906        C  0.58157231  0.56989283  0.03681944    -0.02190
Br907      Br  0.58732765  0.53665679  0.08138733    -0.00740
Br908      Br  0.63166103  0.64191930  0.08287048    -0.00810
Br909      Br  0.52407689  0.55380115  0.42674463    -0.00770
Br910      Br  0.59089046  0.64692394  0.42375556    -0.00750
C911        C  0.52910707  0.00607013  0.00619462     0.00530
C912        C  0.97848050  0.50300244  0.50403401     0.00530
C913        C  0.52328861  0.99496407  0.74809113     0.00530
C914        C  0.97252556  0.99633699  0.74611146     0.00530
Zn915      Zn  0.75584645  0.80488393  0.53766907     1.49720
Zn916      Zn  0.81051599  0.74947669  0.96364534     1.49360
Zn917      Zn  0.75040531  0.69559855  0.52515681     1.49110
Zn918      Zn  0.69268066  0.75558167  0.97167967     1.49480
O919        O  0.75238291  0.75162651  0.49924984    -1.84160
O920        O  0.81701234  0.83999640  0.52728728    -0.74790
O921        O  0.85456947  0.69411683  0.97035261    -0.74610
O922        O  0.74853122  0.70929203  0.58218290    -0.74130
O923        O  0.84993544  0.80910360  0.97160376    -0.74800
O924        O  0.75803079  0.78627606  0.59081823    -0.74400
O925        O  0.80910025  0.65557621  0.51090574    -0.74990
O926        O  0.64566406  0.70407682  0.98172447    -0.74380
O927        O  0.79021742  0.74348480  0.90942886    -0.75130
O928        O  0.69128432  0.65927746  0.51353005    -0.74520
O929        O  0.70923155  0.75362767  0.91491777    -0.74990
O930        O  0.65635804  0.81502185  0.98854493    -0.74900
O931        O  0.69774448  0.84904643  0.53624902    -0.74690
C932        C  0.84898588  0.84079710  0.49974266     0.77100
C933        C  0.84784440  0.65968448  0.49004816     0.77590
C934        C  0.75347602  0.74687088  0.60386446     0.76550
C935        C  0.65151131  0.66753256  0.49851355     0.76930
C936        C  0.74927329  0.74761273  0.89471293     0.78060
C937        C  0.66203903  0.84827439  0.51454060     0.77110
Zn938      Zn  0.75354041  0.68873847  0.77661888     1.49720
Zn939      Zn  0.81141424  0.74800212  0.71607651     1.49360
Zn940      Zn  0.69295570  0.73928302  0.71863544     1.49110
Zn941      Zn  0.74508947  0.80010730  0.78438675     1.49480
O942        O  0.75123285  0.74386080  0.74860286    -1.84160
O943        O  0.81048027  0.64674089  0.75665711    -0.74790
O944        O  0.79304075  0.75072977  0.66162218    -0.74610
O945        O  0.65354021  0.68222745  0.72660433    -0.74130
O946        O  0.85369244  0.68848511  0.71703038    -0.74800
O947        O  0.69290610  0.64959468  0.77074247    -0.74400
O948        O  0.71274936  0.73789949  0.66293470    -0.74990
O949        O  0.68798413  0.83905677  0.77344524    -0.74380
O950        O  0.84899841  0.80853826  0.73116547    -0.75130
O951        O  0.64747174  0.79461107  0.73174987    -0.74520
O952        O  0.80256815  0.84250686  0.77988564    -0.74990
O953        O  0.73875744  0.78368072  0.83872827    -0.74900
O954        O  0.75864715  0.70774461  0.83287252    -0.74690
C955        C  0.84724145  0.65117838  0.73357577     0.77100
C956        C  0.75317106  0.74487665  0.64495336     0.77590
C957        C  0.65753263  0.65061455  0.74896904     0.76550
C958        C  0.65150140  0.83273402  0.75295896     0.76930
C959        C  0.84013276  0.84267517  0.75702539     0.78060
C960        C  0.74856241  0.74617474  0.85327977     0.77110
C961        C  0.58169850  0.94699304  0.78271548    -0.01880
C962        C  0.55157140  0.95050556  0.75166989     0.07800
C963        C  0.55171725  0.91283940  0.72220426    -0.01990
C964        C  0.58426309  0.87457150  0.72216079    -0.02000
C965        C  0.61423116  0.87113950  0.75340942     0.07930
C966        C  0.61009883  0.90643445  0.78472105    -0.02190
Br967      Br  0.63943735  0.89853031  0.83264158    -0.00740
Br968      Br  0.58085319  0.99464200  0.82560677    -0.00810
Br969      Br  0.58863832  0.82931256  0.67728888    -0.00770
Br970      Br  0.50891236  0.91416785  0.68027292    -0.00750
C971        C  0.88996836  0.96755433  0.77534570    -0.01880
C972        C  0.93977387  0.95909435  0.76354268     0.07800
C973        C  0.95586034  0.91328959  0.76757672    -0.01990
C974        C  0.92507866  0.87585413  0.75771613    -0.02000
C975        C  0.87399463  0.88334653  0.76113281     0.07930
C976        C  0.85656471  0.92987449  0.77289572    -0.02190
Br977      Br  0.78769614  0.94397162  0.78228431    -0.00740
Br978      Br  0.86945452  0.52804254  0.80030324    -0.00810
Br979      Br  0.95430554  0.81422343  0.74945112    -0.00770
Br980      Br  0.98388169  0.90550160  0.81538519    -0.00750
C981        C  0.86780002  0.56628394  0.71193786    -0.01880
C982        C  0.88282805  0.61157807  0.72611941     0.07800
C983        C  0.93275585  0.61832174  0.73174129    -0.01990
C984        C  0.96529741  0.58023869  0.72425971    -0.02000
C985        C  0.94711088  0.53453529  0.72585929     0.07930
C986        C  0.90070576  0.52775273  0.71052817    -0.02190
Br987      Br  0.88460836  0.96824523  0.68402405    -0.00740
Br988      Br  0.80278737  0.55675061  0.69517210    -0.00810
Br989      Br  0.00940011  0.58919028  0.68128094    -0.00770
Br990      Br  0.95887410  0.67929061  0.74551389    -0.00750
C991        C  0.62651402  0.57599133  0.71859833    -0.01880
C992        C  0.62167815  0.61272642  0.74804709     0.07800
C993        C  0.58295431  0.61319109  0.77600615    -0.01990
C994        C  0.54936226  0.57616539  0.77507144    -0.02000
C995        C  0.55520298  0.53745092  0.74636183     0.07930
C996        C  0.59461976  0.53788359  0.71818364    -0.02190
Br997      Br  0.60333139  0.99008925  0.67573447    -0.00740
Br998      Br  0.67629837  0.57914882  0.67774024    -0.00810
Br999      Br  0.49630807  0.57881946  0.81408816    -0.00770
Br1000     Br  0.57591407  0.66529769  0.81521474    -0.00750
C1001       C  0.64143745  0.92269085  0.49082376    -0.01880
C1002       C  0.62957102  0.88935648  0.51583706     0.07800
C1003       C  0.58606518  0.89385949  0.03899634    -0.01990
C1004       C  0.55460116  0.93282613  0.03783208    -0.02000
C1005       C  0.56343821  0.96477254  0.50978022     0.07930
C1006       C  0.60838609  0.95905825  0.48657051    -0.02190
Br1007     Br  0.62716380  0.49715764  0.44632430    -0.00740
Br1008     Br  0.70382217  0.91700821  0.46138537    -0.00810
Br1009     Br  0.50499024  0.94454222  0.07889826    -0.00770
Br1010     Br  0.56983633  0.84606884  0.07206196    -0.00750
C1011       C  0.87129681  0.92300644  0.52312213    -0.01880
C1012       C  0.88422446  0.88049984  0.50077602     0.07800
C1013       C  0.93038780  0.87722443  0.98012711    -0.01990
C1014       C  0.96091618  0.91683671  0.97979452    -0.02000
C1015       C  0.94983464  0.95789509  0.50519642     0.07930
C1016       C  0.90565076  0.95855102  0.52855997    -0.02190
Br1017     Br  0.89091901  0.00567369  0.57087961    -0.00740
Br1018     Br  0.80471067  0.93683642  0.54363613    -0.00810
Br1019     Br  0.01239049  0.91571156  0.93976313    -0.00730
Br1020     Br  0.95312606  0.81902178  0.95196174    -0.00750
C1021       C  0.94539609  0.58631224  0.52654715    -0.01880
C1022       C  0.94739042  0.54595378  0.49911781     0.07800
C1023       C  0.91662489  0.54543110  0.96761462    -0.01990
C1024       C  0.88663765  0.58427114  0.96328781    -0.02000
C1025       C  0.88593773  0.62363963  0.49025658     0.07930
C1026       C  0.91554521  0.62497581  0.52147570    -0.02190
Br1027     Br  0.91250264  0.67969404  0.55865389    -0.00740
Br1028     Br  0.97523029  0.58775765  0.57497918    -0.00810
Br1029     Br  0.84459521  0.58348425  0.92093136    -0.00770
Br1030     Br  0.91422367  0.49266429  0.92896812    -0.00750
C1031       C  0.60645202  0.61211541  0.53613462    -0.01880
C1032       C  0.61183156  0.63352933  0.50204350     0.07800
C1033       C  0.58416142  0.61776652  0.97084784    -0.01990
C1034       C  0.55419292  0.57825257  0.97286818    -0.02000
C1035       C  0.55399161  0.55272145  0.50553063     0.07930
C1036       C  0.58157232  0.56989286  0.53681943    -0.02190
Br1037     Br  0.58732766  0.53665681  0.58138732    -0.00740
Br1038     Br  0.63166106  0.64191930  0.58287047    -0.00810
Br1039     Br  0.52407691  0.55380109  0.92674463    -0.00770
Br1040     Br  0.59089048  0.64692388  0.92375555    -0.00750
loop_ 
_geom_bond_atom_site_label_1 
_geom_bond_atom_site_label_2 
_geom_bond_distance 
_geom_bond_site_symmetry_2 
_ccdc_geom_bond_type 
C1          C912   1.397   1_455  D
C1          C225   1.529       .  S
C1          C515   1.509       .  S
C2          C911   1.397       .  D
C2          C112   1.525   1_554  S
C2          C365   1.523   1_545  S
C3          C524   1.397   1_455  D
C3           C52   1.509       .  S
C3          C345   1.511       .  S
C4          C523   1.397       .  D
C4           C62   1.553       .  S
C4          C335   1.551       .  S
Zn5           O9   1.941   1_554  S
Zn5          O10   1.997       .  S
Zn5          O14   2.003       .  S
Zn5          O21   2.035       .  S
Zn6         O139   1.966       .  S
Zn6          O11   2.031       .  S
Zn6          O13   2.035       .  S
Zn6          O17   2.010       .  S
Zn7           O9   1.930   1_554  S
Zn7          O12   2.003       .  S
Zn7          O15   1.980       .  S
Zn7          O18   1.973       .  S
Zn8         O139   1.958       .  S
Zn8          O16   2.014       .  S
Zn8          O19   2.019       .  S
Zn8          O20   1.989       .  S
O9         Zn136   1.966       .  S
O9         Zn138   1.958       .  S
O10          C22   1.271   1_554  A
O11         C153   1.274       .  A
O12          C24   1.269       .  A
O13         C152   1.273       .  A
O14          C24   1.269       .  A
O15          C23   1.269   1_554  A
O16         C155   1.271       .  A
O17          C26   1.273       .  A
O18          C25   1.270   1_554  A
O19          C26   1.274       .  A
O20         C157   1.270       .  A
O21          C27   1.275       .  A
C22         O143   1.273       .  A
C22         C102   1.499   1_556  S
C23         O141   1.274       .  A
C23         C115   1.466       .  S
C24          C46   1.453       .  S
C25         O146   1.271       .  A
C25         C122   1.475   1_556  S
C26          C50   1.457       .  S
C27         O150   1.270   1_554  A
C27          C92   1.468       .  S
Zn28         O32   1.953       .  S
Zn28         O33   2.014       .  S
Zn28         O37   2.021       .  S
Zn28         O44   2.013       .  S
Zn29         O32   1.964       .  S
Zn29         O34   2.019       .  S
Zn29         O36   2.063       .  S
Zn29         O40   2.065       .  S
Zn30         O32   1.962       .  S
Zn30         O35   2.004       .  S
Zn30         O38   2.001       .  S
Zn30         O41   2.012       .  S
Zn31         O32   1.943       .  S
Zn31         O39   1.996       .  S
Zn31         O42   2.007       .  S
Zn31         O43   2.016       .  S
O33          C45   1.273       .  A
O34          C46   1.274       .  A
O35          C47   1.270       .  A
O36          C45   1.280       .  A
O37          C47   1.272       .  A
O38          C46   1.271       .  A
O39          C48   1.269       .  A
O40          C49   1.279       .  A
O41          C48   1.269       .  A
O42          C49   1.270       .  A
O43          C50   1.273       .  A
O44          C50   1.273       .  A
C45          C72   1.486       .  S
C47          C82   1.470       .  S
C48          C55   1.496       .  S
C49          C65   1.498       .  S
C51          C52   1.419       .  A
C51          C56   1.407       .  A
C51         Br58   1.929       .  S
C52          C53   1.419       .  A
C53          C54   1.411       .  A
C53         Br60   1.941       .  S
C54          C55   1.421       .  A
C54         Br59   1.937       .  S
C55          C56   1.417       .  A
C56         Br57   1.944       .  S
C61          C62   1.415       .  A
C61          C66   1.421       .  A
C61        Br328   1.929       .  S
C62          C63   1.408       .  A
C63          C64   1.399       .  A
C63         Br70   1.923       .  S
C64          C65   1.411       .  A
C64         Br69   1.925       .  S
C65          C66   1.428       .  A
C66         Br67   1.930       .  S
Br68        C321   1.929   1_545  S
C71          C72   1.417       .  A
C71          C76   1.418       .  A
C71         Br78   1.922       .  S
C72          C73   1.406       .  A
C73          C74   1.400       .  A
C73         Br80   1.923       .  S
C74          C75   1.413       .  A
C74         Br79   1.921       .  S
C75         C264   1.551   1_545  S
C75          C76   1.417       .  A
C76        Br337   1.928   1_545  S
Br77        C336   1.928       .  S
C81          C82   1.401       .  A
C81          C86   1.405       .  A
C81         Br88   1.934       .  S
C82          C83   1.404       .  A
C83          C84   1.411       .  A
C83         Br90   1.929       .  S
C84          C85   1.425       .  A
C84         Br89   1.937   1_455  S
C85         C263   1.511   1_545  S
C85          C86   1.425       .  A
C86        Br347   1.926   1_545  S
Br87        C346   1.926       .  S
C91          C92   1.394   1_556  A
C91          C96   1.403       .  A
C91         Br98   1.944       .  S
C92         C223   1.402       .  A
C93          C94   1.414       .  A
C93         C222   1.402       .  A
C93        Br100   1.928       .  S
C94         C225   1.428       .  A
C94         Br99   1.928       .  S
C95         C131   1.529       .  S
C95          C96   1.437   1_554  A
C95         C224   1.428       .  A
C96        Br357   1.928       .  S
Br97        C356   1.928       .  S
C101        C102   1.414       .  A
C101        C106   1.400       .  A
C101       Br108   1.946       .  S
C102        C233   1.420   1_554  A
C103        C104   1.418       .  A
C103        C232   1.420       .  A
C103       Br110   1.933       .  S
C104        C235   1.424       .  A
C104       Br109   1.934       .  S
C105        C262   1.522       .  S
C105        C106   1.423       .  A
C105        C234   1.424   1_554  A
C106       Br107   1.929       .  S
C111        C112   1.429   1_554  A
C111        C116   1.407       .  A
C111       Br118   1.930       .  S
C112        C243   1.430       .  A
C113        C114   1.407       .  A
C113        C242   1.430       .  A
C113       Br120   1.934   1_545  S
C114        C245   1.399       .  A
C114       Br119   1.935       .  S
C115        C116   1.401   1_556  A
C115        C244   1.399       .  A
C116       Br117   1.937       .  S
C121        C122   1.405       .  A
C121        C126   1.397       .  A
C121       Br128   1.941       .  S
C122        C253   1.409   1_554  A
C123        C124   1.411       .  A
C123        C252   1.409       .  A
C123       Br130   1.934       .  S
C124        C255   1.426       .  A
C124       Br129   1.934       .  S
C125        C391   1.509       .  S
C125        C126   1.420       .  A
C125        C254   1.426   1_554  A
C126       Br127   1.933       .  S
C131        C782   1.397   1_455  D
C131        C385   1.509       .  S
C132        C781   1.397       .  D
C132        C495   1.523   1_545  S
C132        C242   1.525       .  S
C133        C654   1.397   1_455  D
C133        C182   1.509       .  S
C133        C475   1.511       .  S
C134        C653   1.397       .  D
C134        C192   1.553       .  S
C134        C465   1.551       .  S
Zn135       O139   1.941       .  S
Zn135       O140   1.997       .  S
Zn135       O144   2.003       .  S
Zn135       O151   2.035       .  S
Zn136       O141   2.031       .  S
Zn136       O143   2.035       .  S
Zn136       O147   2.010       .  S
Zn137       O139   1.930       .  S
Zn137       O142   2.003       .  S
Zn137       O145   1.980       .  S
Zn137       O148   1.973       .  S
Zn138       O146   2.014       .  S
Zn138       O149   2.019       .  S
Zn138       O150   1.989       .  S
O140        C152   1.271       .  A
O142        C154   1.269       .  A
O144        C154   1.269       .  A
O145        C153   1.269       .  A
O147        C156   1.273       .  A
O148        C155   1.270       .  A
O149        C156   1.274       .  A
O151        C157   1.275       .  A
C152        C232   1.499       .  S
C153        C245   1.466       .  S
C154        C176   1.453       .  S
C155        C252   1.475       .  S
C156        C180   1.457       .  S
C157        C222   1.468       .  S
Zn158       O162   1.953       .  S
Zn158       O163   2.014       .  S
Zn158       O167   2.021       .  S
Zn158       O174   2.013       .  S
Zn159       O162   1.964       .  S
Zn159       O164   2.019       .  S
Zn159       O166   2.063       .  S
Zn159       O170   2.065       .  S
Zn160       O162   1.962       .  S
Zn160       O165   2.004       .  S
Zn160       O168   2.001       .  S
Zn160       O171   2.012       .  S
Zn161       O162   1.943       .  S
Zn161       O169   1.996       .  S
Zn161       O172   2.007       .  S
Zn161       O173   2.016       .  S
O163        C175   1.273       .  A
O164        C176   1.274       .  A
O165        C177   1.270       .  A
O166        C175   1.280       .  A
O167        C177   1.272       .  A
O168        C176   1.271       .  A
O169        C178   1.269       .  A
O170        C179   1.279       .  A
O171        C178   1.269       .  A
O172        C179   1.270       .  A
O173        C180   1.273       .  A
O174        C180   1.273       .  A
C175        C202   1.486       .  S
C177        C212   1.470       .  S
C178        C185   1.496       .  S
C179        C195   1.498       .  S
C181        C182   1.419       .  A
C181        C186   1.407       .  A
C181       Br188   1.929       .  S
C182        C183   1.419       .  A
C183        C184   1.411       .  A
C183       Br190   1.941       .  S
C184        C185   1.421       .  A
C184       Br189   1.937       .  S
C185        C186   1.417       .  A
C186       Br187   1.944       .  S
C191        C192   1.415       .  A
C191        C196   1.421       .  A
C191       Br458   1.929       .  S
C192        C193   1.408       .  A
C193        C194   1.399       .  A
C193       Br200   1.923       .  S
C194        C195   1.411       .  A
C194       Br199   1.925       .  S
C195        C196   1.428       .  A
C196       Br197   1.930       .  S
Br198       C451   1.929   1_545  S
C201        C202   1.417       .  A
C201        C206   1.418       .  A
C201       Br208   1.922       .  S
C202        C203   1.406       .  A
C203        C204   1.400       .  A
C203       Br210   1.923       .  S
C204        C205   1.413       .  A
C204       Br209   1.921       .  S
C205        C394   1.551   1_545  S
C205        C206   1.417       .  A
C206       Br467   1.928   1_545  S
Br207       C466   1.928       .  S
C211        C212   1.401       .  A
C211        C216   1.405       .  A
C211       Br218   1.934       .  S
C212        C213   1.404       .  A
C213        C214   1.411       .  A
C213       Br220   1.929       .  S
C214        C215   1.425       .  A
C214       Br219   1.937   1_455  S
C215        C393   1.511   1_545  S
C215        C216   1.425       .  A
C216       Br477   1.926   1_545  S
Br217       C476   1.926       .  S
C221        C222   1.394       .  A
C221        C226   1.403       .  A
C221       Br228   1.944       .  S
C223        C224   1.414       .  A
C223       Br230   1.928       .  S
C224       Br229   1.928       .  S
C225        C226   1.437       .  A
C226       Br487   1.928       .  S
Br227       C486   1.928       .  S
C231        C232   1.414       .  A
C231        C236   1.400       .  A
C231       Br238   1.946       .  S
C233        C234   1.418       .  A
C233       Br240   1.933       .  S
C234       Br239   1.934       .  S
C235        C392   1.522       .  S
C235        C236   1.423       .  A
C236       Br237   1.929       .  S
C241        C242   1.429       .  A
C241        C246   1.407       .  A
C241       Br248   1.930       .  S
C243        C244   1.407       .  A
C243       Br250   1.934   1_545  S
C244       Br249   1.935       .  S
C245        C246   1.401       .  A
C246       Br247   1.937       .  S
C251        C252   1.405       .  A
C251        C256   1.397       .  A
C251       Br258   1.941       .  S
C253        C254   1.411       .  A
C253       Br260   1.934       .  S
C254       Br259   1.934       .  S
C255        C261   1.509       .  S
C255        C256   1.420       .  A
C256       Br257   1.933       .  S
C261        C652   1.397   1_455  D
C261        C485   1.529   1_545  S
C262        C651   1.397       .  D
C262        C372   1.525   1_554  S
C263        C784   1.397   1_455  D
C263        C312   1.509       .  S
C264        C783   1.397       .  D
C264        C322   1.553       .  S
Zn265       O269   1.941   1_554  S
Zn265       O270   1.997       .  S
Zn265       O274   2.003       .  S
Zn265       O281   2.035       .  S
Zn266       O399   1.966       .  S
Zn266       O271   2.031       .  S
Zn266       O273   2.035       .  S
Zn266       O277   2.010       .  S
Zn267       O269   1.930   1_554  S
Zn267       O272   2.003       .  S
Zn267       O275   1.980       .  S
Zn267       O278   1.973       .  S
Zn268       O399   1.958       .  S
Zn268       O276   2.014       .  S
Zn268       O279   2.019       .  S
Zn268       O280   1.989       .  S
O269       Zn396   1.966       .  S
O269       Zn398   1.958       .  S
O270        C282   1.271   1_554  A
O271        C413   1.274       .  A
O272        C284   1.269       .  A
O273        C412   1.273       .  A
O274        C284   1.269       .  A
O275        C283   1.269   1_554  A
O276        C415   1.271       .  A
O277        C286   1.273       .  A
O278        C285   1.270   1_554  A
O279        C286   1.274       .  A
O280        C417   1.270       .  A
O281        C287   1.275       .  A
C282        O403   1.273       .  A
C282        C362   1.498   1_556  S
C283        O401   1.274       .  A
C283        C375   1.466       .  S
C284        C306   1.453       .  S
C285        O406   1.271       .  A
C285        C382   1.475   1_556  S
C286        C310   1.457       .  S
C287        O410   1.270   1_554  A
C287        C352   1.468       .  S
Zn288       O292   1.953       .  S
Zn288       O293   2.014       .  S
Zn288       O297   2.021       .  S
Zn288       O304   2.013       .  S
Zn289       O292   1.964       .  S
Zn289       O294   2.020       .  S
Zn289       O296   2.063       .  S
Zn289       O300   2.065       .  S
Zn290       O292   1.962       .  S
Zn290       O295   2.004       .  S
Zn290       O298   2.001       .  S
Zn290       O301   2.012       .  S
Zn291       O292   1.943       .  S
Zn291       O299   1.996       .  S
Zn291       O302   2.007       .  S
Zn291       O303   2.016       .  S
O293        C305   1.273       .  A
O294        C306   1.274       .  A
O295        C307   1.270       .  A
O296        C305   1.280       .  A
O297        C307   1.272       .  A
O298        C306   1.271       .  A
O299        C308   1.269       .  A
O300        C309   1.279       .  A
O301        C308   1.269       .  A
O302        C309   1.270       .  A
O303        C310   1.273       .  A
O304        C310   1.273       .  A
C305        C332   1.486       .  S
C307        C342   1.470       .  S
C308        C315   1.496       .  S
C309        C325   1.498       .  S
C311        C312   1.419       .  A
C311        C316   1.407       .  A
C311       Br318   1.929       .  S
C312        C313   1.419       .  A
C313        C314   1.411       .  A
C313       Br320   1.941       .  S
C314        C315   1.421       .  A
C314       Br319   1.937       .  S
C315        C316   1.417       .  A
C316       Br317   1.944       .  S
C321        C322   1.415       .  A
C321        C326   1.421       .  A
C322        C323   1.408       .  A
C323        C324   1.399       .  A
C323       Br330   1.923       .  S
C324        C325   1.411       .  A
C324       Br329   1.925       .  S
C325        C326   1.428       .  A
C326       Br327   1.930       .  S
C331        C332   1.417       .  A
C331        C336   1.418       .  A
C331       Br338   1.922       .  S
C332        C333   1.406       .  A
C333        C334   1.400       .  A
C333       Br340   1.923       .  S
C334        C335   1.413       .  A
C334       Br339   1.921       .  S
C335        C336   1.417       .  A
C341        C342   1.401       .  A
C341        C346   1.405       .  A
C341       Br348   1.934       .  S
C342        C343   1.404       .  A
C343        C344   1.411       .  A
C343       Br350   1.929       .  S
C344        C345   1.425       .  A
C344       Br349   1.937   1_455  S
C345        C346   1.425       .  A
C351        C352   1.394   1_556  A
C351        C356   1.403       .  A
C351       Br358   1.944       .  S
C352        C483   1.402       .  A
C353        C482   1.402       .  A
C353        C354   1.414       .  A
C353       Br360   1.928       .  S
C354        C485   1.428       .  A
C354       Br359   1.928       .  S
C355        C391   1.529   1_565  S
C355        C484   1.428       .  A
C355        C356   1.437   1_554  A
C361        C362   1.414       .  A
C361        C366   1.400       .  A
C361       Br368   1.946       .  S
C362        C493   1.420   1_554  A
C363        C492   1.420       .  A
C363        C364   1.418       .  A
C363       Br370   1.933       .  S
C364        C495   1.424       .  A
C364       Br369   1.933       .  S
C365        C494   1.424   1_554  A
C365        C366   1.423       .  A
C366       Br367   1.929   1_565  S
C371        C372   1.429   1_554  A
C371        C376   1.407       .  A
C371       Br378   1.930       .  S
C372        C503   1.430       .  A
C373        C502   1.430       .  A
C373        C374   1.407       .  A
C373       Br380   1.933       .  S
C374        C505   1.399       .  A
C374       Br379   1.935       .  S
C375        C504   1.399       .  A
C375        C376   1.401   1_556  A
C376       Br377   1.937       .  S
C381        C382   1.405       .  A
C381        C386   1.397       .  A
C381       Br388   1.941       .  S
C382        C513   1.409   1_554  A
C383        C512   1.409       .  A
C383        C384   1.411       .  A
C383       Br390   1.934       .  S
C384        C515   1.426       .  A
C384       Br389   1.934       .  S
C385        C514   1.426   1_554  A
C385        C386   1.420       .  A
C386       Br387   1.933       .  S
C391        C522   1.397   1_455  D
C392        C521   1.397       .  D
C392        C502   1.525       .  S
C393        C914   1.397   1_455  D
C393        C442   1.509       .  S
C394        C913   1.397       .  D
C394        C452   1.553       .  S
Zn395       O399   1.941       .  S
Zn395       O400   1.997       .  S
Zn395       O404   2.003       .  S
Zn395       O411   2.035       .  S
Zn396       O401   2.031       .  S
Zn396       O403   2.035       .  S
Zn396       O407   2.010       .  S
Zn397       O399   1.930       .  S
Zn397       O402   2.003       .  S
Zn397       O405   1.980       .  S
Zn397       O408   1.973       .  S
Zn398       O406   2.014       .  S
Zn398       O409   2.019       .  S
Zn398       O410   1.989       .  S
O400        C412   1.271       .  A
O402        C414   1.269       .  A
O404        C414   1.269       .  A
O405        C413   1.269       .  A
O407        C416   1.273       .  A
O408        C415   1.270       .  A
O409        C416   1.274       .  A
O411        C417   1.275       .  A
C412        C492   1.498       .  S
C413        C505   1.466       .  S
C414        C436   1.453       .  S
C415        C512   1.475       .  S
C416        C440   1.457       .  S
C417        C482   1.468       .  S
Zn418       O422   1.953       .  S
Zn418       O423   2.014       .  S
Zn418       O427   2.021       .  S
Zn418       O434   2.013       .  S
Zn419       O422   1.964       .  S
Zn419       O424   2.020       .  S
Zn419       O426   2.063       .  S
Zn419       O430   2.065       .  S
Zn420       O422   1.962       .  S
Zn420       O425   2.004       .  S
Zn420       O428   2.001       .  S
Zn420       O431   2.012       .  S
Zn421       O422   1.943       .  S
Zn421       O429   1.996       .  S
Zn421       O432   2.007       .  S
Zn421       O433   2.016       .  S
O423        C435   1.273       .  A
O424        C436   1.274       .  A
O425        C437   1.270       .  A
O426        C435   1.280       .  A
O427        C437   1.272       .  A
O428        C436   1.271       .  A
O429        C438   1.269       .  A
O430        C439   1.279       .  A
O431        C438   1.269       .  A
O432        C439   1.270       .  A
O433        C440   1.273       .  A
O434        C440   1.273       .  A
C435        C462   1.486       .  S
C437        C472   1.470       .  S
C438        C445   1.496       .  S
C439        C455   1.498       .  S
C441        C442   1.419       .  A
C441        C446   1.407       .  A
C441       Br448   1.929       .  S
C442        C443   1.419       .  A
C443        C444   1.411       .  A
C443       Br450   1.941       .  S
C444        C445   1.421       .  A
C444       Br449   1.937       .  S
C445        C446   1.417       .  A
C446       Br447   1.944       .  S
C451        C452   1.415       .  A
C451        C456   1.421       .  A
C452        C453   1.408       .  A
C453        C454   1.399       .  A
C453       Br460   1.923       .  S
C454        C455   1.411       .  A
C454       Br459   1.925       .  S
C455        C456   1.428       .  A
C456       Br457   1.930       .  S
C461        C462   1.417       .  A
C461        C466   1.418       .  A
C461       Br468   1.922       .  S
C462        C463   1.406       .  A
C463        C464   1.400       .  A
C463       Br470   1.923       .  S
C464        C465   1.413       .  A
C464       Br469   1.921       .  S
C465        C466   1.417       .  A
C471        C472   1.401       .  A
C471        C476   1.405       .  A
C471       Br478   1.934       .  S
C472        C473   1.404       .  A
C473        C474   1.411       .  A
C473       Br480   1.929       .  S
C474        C475   1.425       .  A
C474       Br479   1.937   1_455  S
C475        C476   1.425       .  A
C481        C482   1.394       .  A
C481        C486   1.403       .  A
C481       Br488   1.944       .  S
C483        C484   1.414       .  A
C483       Br490   1.928       .  S
C484       Br489   1.928       .  S
C485        C486   1.437       .  A
C491        C492   1.414       .  A
C491        C496   1.400       .  A
C491       Br498   1.946       .  S
C493        C494   1.418       .  A
C493       Br500   1.933       .  S
C494       Br499   1.933       .  S
C495        C496   1.423       .  A
C496       Br497   1.929   1_565  S
C501        C502   1.429       .  A
C501        C506   1.407       .  A
C501       Br508   1.930       .  S
C503        C504   1.407       .  A
C503       Br510   1.933       .  S
C504       Br509   1.935       .  S
C505        C506   1.401       .  A
C506       Br507   1.937       .  S
C511        C512   1.405       .  A
C511        C516   1.397       .  A
C511       Br518   1.941       .  S
C513        C514   1.411       .  A
C513       Br520   1.934       .  S
C514       Br519   1.934       .  S
C515        C516   1.420       .  A
C516       Br517   1.933       .  S
C521        C745   1.529       .  S
C521       C1035   1.509       .  S
C522        C885   1.523   1_545  S
C522        C632   1.525   1_554  S
C523        C572   1.509       .  S
C523        C865   1.511       .  S
C524        C582   1.553       .  S
C524        C855   1.551       .  S
Zn525       O529   1.941   1_554  S
Zn525       O530   1.997       .  S
Zn525       O534   2.003       .  S
Zn525       O541   2.035       .  S
Zn526       O659   1.966       .  S
Zn526       O531   2.031       .  S
Zn526       O533   2.035       .  S
Zn526       O537   2.010       .  S
Zn527       O529   1.930   1_554  S
Zn527       O532   2.003       .  S
Zn527       O535   1.980       .  S
Zn527       O538   1.973       .  S
Zn528       O659   1.958       .  S
Zn528       O536   2.014       .  S
Zn528       O539   2.019       .  S
Zn528       O540   1.989       .  S
O529       Zn656   1.966       .  S
O529       Zn658   1.958       .  S
O530        C542   1.271   1_554  A
O531        C673   1.274       .  A
O532        C544   1.269       .  A
O533        C672   1.273       .  A
O534        C544   1.269       .  A
O535        C543   1.269   1_554  A
O536        C675   1.271       .  A
O537        C546   1.273       .  A
O538        C545   1.270   1_554  A
O539        C546   1.274       .  A
O540        C677   1.270       .  A
O541        C547   1.275       .  A
C542        O663   1.273       .  A
C542        C622   1.499   1_556  S
C543        O661   1.274       .  A
C543        C635   1.466       .  S
C544        C566   1.453       .  S
C545        O666   1.271       .  A
C545        C642   1.475   1_556  S
C546        C570   1.457       .  S
C547        O670   1.270   1_554  A
C547        C612   1.468       .  S
Zn548       O552   1.953       .  S
Zn548       O553   2.014       .  S
Zn548       O557   2.021       .  S
Zn548       O564   2.013       .  S
Zn549       O552   1.964       .  S
Zn549       O554   2.019       .  S
Zn549       O556   2.063       .  S
Zn549       O560   2.065       .  S
Zn550       O552   1.962       .  S
Zn550       O555   2.004       .  S
Zn550       O558   2.001       .  S
Zn550       O561   2.012       .  S
Zn551       O552   1.943       .  S
Zn551       O559   1.996       .  S
Zn551       O562   2.007       .  S
Zn551       O563   2.016       .  S
O553        C565   1.273       .  A
O554        C566   1.274       .  A
O555        C567   1.270       .  A
O556        C565   1.280       .  A
O557        C567   1.272       .  A
O558        C566   1.271       .  A
O559        C568   1.269       .  A
O560        C569   1.279       .  A
O561        C568   1.269       .  A
O562        C569   1.270       .  A
O563        C570   1.273       .  A
O564        C570   1.273       .  A
C565        C592   1.486       .  S
C567        C602   1.470       .  S
C568        C575   1.496       .  S
C569        C585   1.498       .  S
C571        C572   1.419       .  A
C571        C576   1.407       .  A
C571       Br578   1.929       .  S
C572        C573   1.419       .  A
C573        C574   1.411       .  A
C573       Br580   1.941       .  S
C574        C575   1.421       .  A
C574       Br579   1.937       .  S
C575        C576   1.417       .  A
C576       Br577   1.944       .  S
C581        C582   1.415       .  A
C581        C586   1.421       .  A
C581       Br848   1.929       .  S
C582        C583   1.408       .  A
C583        C584   1.399       .  A
C583       Br590   1.923       .  S
C584        C585   1.411       .  A
C584       Br589   1.925       .  S
C585        C586   1.428       .  A
C586       Br587   1.930       .  S
Br588       C841   1.929   1_545  S
C591        C592   1.417       .  A
C591        C596   1.418       .  A
C591       Br598   1.922       .  S
C592        C593   1.406       .  A
C593        C594   1.400       .  A
C593       Br600   1.923       .  S
C594        C595   1.413       .  A
C594       Br599   1.921   1_655  S
C595        C784   1.551   1_545  S
C595        C596   1.417       .  A
C596       Br857   1.928   1_545  S
Br597       C856   1.928       .  S
C601        C602   1.401       .  A
C601        C606   1.405       .  A
C601       Br608   1.934       .  S
C602        C603   1.404       .  A
C603        C604   1.411       .  A
C603       Br610   1.929       .  S
C604        C605   1.425       .  A
C604       Br609   1.937       .  S
C605        C783   1.511   1_545  S
C605        C606   1.425       .  A
C606       Br867   1.926   1_545  S
Br607       C866   1.926       .  S
C611        C612   1.394   1_556  A
C611        C616   1.403       .  A
C611       Br618   1.944       .  S
C612        C743   1.402       .  A
C613        C742   1.402       .  A
C613        C614   1.414       .  A
C613       Br620   1.928       .  S
C614        C745   1.428       .  A
C614       Br619   1.928       .  S
C615        C651   1.529       .  S
C615        C744   1.428       .  A
C615        C616   1.437   1_554  A
C616       Br877   1.928       .  S
Br617       C876   1.928       .  S
C621        C622   1.414       .  A
C621        C626   1.400       .  A
C621       Br628   1.946       .  S
C622        C753   1.420   1_554  A
C623        C752   1.420       .  A
C623        C624   1.418       .  A
C623       Br630   1.933       .  S
C624        C755   1.424       .  A
C624       Br629   1.934   1_655  S
C625        C782   1.522       .  S
C625        C754   1.424   1_554  A
C625        C626   1.423       .  A
C626       Br627   1.929       .  S
C631        C632   1.429   1_554  A
C631        C636   1.407       .  A
C631       Br638   1.930       .  S
C632        C763   1.430       .  A
C633        C762   1.430       .  A
C633        C634   1.407       .  A
C633       Br640   1.934   1_545  S
C634        C765   1.399       .  A
C634       Br639   1.935       .  S
C635        C764   1.399       .  A
C635        C636   1.401   1_556  A
C636       Br637   1.937       .  S
C641        C642   1.405       .  A
C641        C646   1.397       .  A
C641       Br648   1.941       .  S
C642        C773   1.409   1_554  A
C643        C772   1.409       .  A
C643        C644   1.411       .  A
C643       Br650   1.934       .  S
C644        C775   1.426       .  A
C644       Br649   1.934       .  S
C645        C911   1.509       .  S
C645        C774   1.426   1_554  A
C645        C646   1.420       .  A
C646       Br647   1.933       .  S
C651        C905   1.509       .  S
C652       C1015   1.523   1_545  S
C652        C762   1.525       .  S
C653        C702   1.509       .  S
C653        C995   1.511       .  S
C654        C712   1.553       .  S
C654        C985   1.551       .  S
Zn655       O659   1.941       .  S
Zn655       O660   1.997       .  S
Zn655       O664   2.003       .  S
Zn655       O671   2.035       .  S
Zn656       O661   2.031       .  S
Zn656       O663   2.035       .  S
Zn656       O667   2.010       .  S
Zn657       O659   1.930       .  S
Zn657       O662   2.003       .  S
Zn657       O665   1.980       .  S
Zn657       O668   1.973       .  S
Zn658       O666   2.014       .  S
Zn658       O669   2.019       .  S
Zn658       O670   1.989       .  S
O660        C672   1.271       .  A
O662        C674   1.269       .  A
O664        C674   1.269       .  A
O665        C673   1.269       .  A
O667        C676   1.273       .  A
O668        C675   1.270       .  A
O669        C676   1.274       .  A
O671        C677   1.275       .  A
C672        C752   1.499       .  S
C673        C765   1.466       .  S
C674        C696   1.453       .  S
C675        C772   1.475       .  S
C676        C700   1.457       .  S
C677        C742   1.468       .  S
Zn678       O682   1.953       .  S
Zn678       O683   2.014       .  S
Zn678       O687   2.021       .  S
Zn678       O694   2.013       .  S
Zn679       O682   1.964       .  S
Zn679       O684   2.019       .  S
Zn679       O686   2.063       .  S
Zn679       O690   2.065       .  S
Zn680       O682   1.962       .  S
Zn680       O685   2.004       .  S
Zn680       O688   2.001       .  S
Zn680       O691   2.012       .  S
Zn681       O682   1.943       .  S
Zn681       O689   1.996       .  S
Zn681       O692   2.007       .  S
Zn681       O693   2.016       .  S
O683        C695   1.273       .  A
O684        C696   1.274       .  A
O685        C697   1.270       .  A
O686        C695   1.280       .  A
O687        C697   1.272       .  A
O688        C696   1.271       .  A
O689        C698   1.269       .  A
O690        C699   1.279       .  A
O691        C698   1.269       .  A
O692        C699   1.270       .  A
O693        C700   1.273       .  A
O694        C700   1.273       .  A
C695        C722   1.486       .  S
C697        C732   1.470       .  S
C698        C705   1.496       .  S
C699        C715   1.498       .  S
C701        C702   1.419       .  A
C701        C706   1.407       .  A
C701       Br708   1.929       .  S
C702        C703   1.419       .  A
C703        C704   1.411       .  A
C703       Br710   1.941       .  S
C704        C705   1.421       .  A
C704       Br709   1.937       .  S
C705        C706   1.417       .  A
C706       Br707   1.944       .  S
C711        C712   1.415       .  A
C711        C716   1.421       .  A
C711       Br978   1.929       .  S
C712        C713   1.408       .  A
C713        C714   1.399       .  A
C713       Br720   1.923       .  S
C714        C715   1.411       .  A
C714       Br719   1.925       .  S
C715        C716   1.428       .  A
C716       Br717   1.930       .  S
Br718       C971   1.929   1_545  S
C721        C722   1.417       .  A
C721        C726   1.418       .  A
C721       Br728   1.922       .  S
C722        C723   1.406       .  A
C723        C724   1.400       .  A
C723       Br730   1.923       .  S
C724        C725   1.413       .  A
C724       Br729   1.921   1_655  S
C725        C914   1.551   1_545  S
C725        C726   1.417       .  A
C726       Br987   1.928   1_545  S
Br727       C986   1.928       .  S
C731        C732   1.401       .  A
C731        C736   1.405       .  A
C731       Br738   1.934       .  S
C732        C733   1.404       .  A
C733        C734   1.411       .  A
C733       Br740   1.929       .  S
C734        C735   1.425       .  A
C734       Br739   1.937       .  S
C735        C913   1.511   1_545  S
C735        C736   1.425       .  A
C736       Br997   1.926   1_545  S
Br737       C996   1.926       .  S
C741        C742   1.394       .  A
C741        C746   1.403       .  A
C741       Br748   1.944       .  S
C743        C744   1.414       .  A
C743       Br750   1.928       .  S
C744       Br749   1.928       .  S
C745        C746   1.437       .  A
C746      Br1007   1.928       .  S
Br747      C1006   1.928       .  S
C751        C752   1.414       .  A
C751        C756   1.400       .  A
C751       Br758   1.946       .  S
C753        C754   1.418       .  A
C753       Br760   1.933       .  S
C754       Br759   1.934   1_655  S
C755        C912   1.522       .  S
C755        C756   1.423       .  A
C756       Br757   1.929       .  S
C761        C762   1.429       .  A
C761        C766   1.407       .  A
C761       Br768   1.930       .  S
C763        C764   1.407       .  A
C763       Br770   1.934   1_545  S
C764       Br769   1.935       .  S
C765        C766   1.401       .  A
C766       Br767   1.937       .  S
C771        C772   1.405       .  A
C771        C776   1.397       .  A
C771       Br778   1.941       .  S
C773        C774   1.411       .  A
C773       Br780   1.934       .  S
C774       Br779   1.934       .  S
C775        C781   1.509       .  S
C775        C776   1.420       .  A
C776       Br777   1.933       .  S
C781       C1005   1.529   1_545  S
C782        C892   1.525   1_554  S
C783        C832   1.509       .  S
C784        C842   1.553       .  S
Zn785       O789   1.941   1_554  S
Zn785       O790   1.997       .  S
Zn785       O794   2.003       .  S
Zn785       O801   2.035       .  S
Zn786       O919   1.966       .  S
Zn786       O791   2.031       .  S
Zn786       O793   2.035       .  S
Zn786       O797   2.010       .  S
Zn787       O789   1.930   1_554  S
Zn787       O792   2.003       .  S
Zn787       O795   1.980       .  S
Zn787       O798   1.973       .  S
Zn788       O919   1.958       .  S
Zn788       O796   2.014       .  S
Zn788       O799   2.019       .  S
Zn788       O800   1.989       .  S
O789       Zn916   1.966       .  S
O789       Zn918   1.958       .  S
O790        C802   1.271   1_554  A
O791        C933   1.274       .  A
O792        C804   1.269       .  A
O793        C932   1.273       .  A
O794        C804   1.269       .  A
O795        C803   1.269   1_554  A
O796        C935   1.271       .  A
O797        C806   1.273       .  A
O798        C805   1.270   1_554  A
O799        C806   1.274       .  A
O800        C937   1.270       .  A
O801        C807   1.275       .  A
C802        O923   1.273       .  A
C802        C882   1.498   1_556  S
C803        O921   1.274       .  A
C803        C895   1.466       .  S
C804        C826   1.453       .  S
C805        O926   1.271       .  A
C805        C902   1.475   1_556  S
C806        C830   1.457       .  S
C807        O930   1.270   1_554  A
C807        C872   1.468       .  S
Zn808       O812   1.953       .  S
Zn808       O813   2.014       .  S
Zn808       O817   2.021       .  S
Zn808       O824   2.013       .  S
Zn809       O812   1.964       .  S
Zn809       O814   2.020       .  S
Zn809       O816   2.063       .  S
Zn809       O820   2.065       .  S
Zn810       O812   1.962       .  S
Zn810       O815   2.004       .  S
Zn810       O818   2.001       .  S
Zn810       O821   2.012       .  S
Zn811       O812   1.943       .  S
Zn811       O819   1.996       .  S
Zn811       O822   2.007       .  S
Zn811       O823   2.016       .  S
O813        C825   1.273       .  A
O814        C826   1.274       .  A
O815        C827   1.270       .  A
O816        C825   1.280       .  A
O817        C827   1.272       .  A
O818        C826   1.271       .  A
O819        C828   1.269       .  A
O820        C829   1.279       .  A
O821        C828   1.269       .  A
O822        C829   1.270       .  A
O823        C830   1.273       .  A
O824        C830   1.273       .  A
C825        C852   1.486       .  S
C827        C862   1.470       .  S
C828        C835   1.496       .  S
C829        C845   1.498       .  S
C831        C832   1.419       .  A
C831        C836   1.407       .  A
C831       Br838   1.929       .  S
C832        C833   1.419       .  A
C833        C834   1.411       .  A
C833       Br840   1.941       .  S
C834        C835   1.421       .  A
C834       Br839   1.937       .  S
C835        C836   1.417       .  A
C836       Br837   1.944       .  S
C841        C842   1.415       .  A
C841        C846   1.421       .  A
C842        C843   1.408       .  A
C843        C844   1.399       .  A
C843       Br850   1.923       .  S
C844        C845   1.411       .  A
C844       Br849   1.925       .  S
C845        C846   1.428       .  A
C846       Br847   1.930       .  S
C851        C852   1.417       .  A
C851        C856   1.418       .  A
C851       Br858   1.922       .  S
C852        C853   1.406       .  A
C853        C854   1.400       .  A
C853       Br860   1.923       .  S
C854        C855   1.413       .  A
C854       Br859   1.921   1_655  S
C855        C856   1.417       .  A
C861        C862   1.401       .  A
C861        C866   1.405       .  A
C861       Br868   1.934       .  S
C862        C863   1.404       .  A
C863        C864   1.411       .  A
C863       Br870   1.929       .  S
C864        C865   1.425       .  A
C864       Br869   1.937       .  S
C865        C866   1.425       .  A
C871        C872   1.394   1_556  A
C871        C876   1.403       .  A
C871       Br878   1.944       .  S
C872       C1003   1.402       .  A
C873       C1002   1.402       .  A
C873        C874   1.414       .  A
C873       Br880   1.928       .  S
C874       C1005   1.428       .  A
C874       Br879   1.928       .  S
C875        C911   1.529   1_565  S
C875       C1004   1.428       .  A
C875        C876   1.437   1_554  A
C881        C882   1.414       .  A
C881        C886   1.400       .  A
C881       Br888   1.946       .  S
C882       C1013   1.420   1_554  A
C883       C1012   1.420       .  A
C883        C884   1.418       .  A
C883       Br890   1.933       .  S
C884       C1015   1.424       .  A
C884       Br889   1.933   1_655  S
C885       C1014   1.424   1_554  A
C885        C886   1.423       .  A
C886       Br887   1.929   1_565  S
C891        C892   1.429   1_554  A
C891        C896   1.407       .  A
C891       Br898   1.930       .  S
C892       C1023   1.430       .  A
C893       C1022   1.430       .  A
C893        C894   1.407       .  A
C893       Br900   1.933       .  S
C894       C1025   1.399       .  A
C894       Br899   1.935       .  S
C895       C1024   1.399       .  A
C895        C896   1.401   1_556  A
C896       Br897   1.937       .  S
C901        C902   1.405       .  A
C901        C906   1.397       .  A
C901       Br908   1.941       .  S
C902       C1033   1.409   1_554  A
C903       C1032   1.409       .  A
C903        C904   1.411       .  A
C903       Br910   1.934       .  S
C904       C1035   1.426       .  A
C904       Br909   1.934       .  S
C905       C1034   1.426   1_554  A
C905        C906   1.420       .  A
C906       Br907   1.933       .  S
C912       C1022   1.525       .  S
C913        C962   1.509       .  S
C914        C972   1.553       .  S
Zn915       O919   1.941       .  S
Zn915       O920   1.997       .  S
Zn915       O924   2.003       .  S
Zn915       O931   2.035       .  S
Zn916       O921   2.031       .  S
Zn916       O923   2.035       .  S
Zn916       O927   2.010       .  S
Zn917       O919   1.930       .  S
Zn917       O922   2.003       .  S
Zn917       O925   1.980       .  S
Zn917       O928   1.973       .  S
Zn918       O926   2.014       .  S
Zn918       O929   2.019       .  S
Zn918       O930   1.989       .  S
O920        C932   1.271       .  A
O922        C934   1.269       .  A
O924        C934   1.269       .  A
O925        C933   1.269       .  A
O927        C936   1.273       .  A
O928        C935   1.270       .  A
O929        C936   1.274       .  A
O931        C937   1.275       .  A
C932       C1012   1.498       .  S
C933       C1025   1.466       .  S
C934        C956   1.453       .  S
C935       C1032   1.475       .  S
C936        C960   1.457       .  S
C937       C1002   1.468       .  S
Zn938       O942   1.953       .  S
Zn938       O943   2.014       .  S
Zn938       O947   2.021       .  S
Zn938       O954   2.013       .  S
Zn939       O942   1.964       .  S
Zn939       O944   2.020       .  S
Zn939       O946   2.063       .  S
Zn939       O950   2.065       .  S
Zn940       O942   1.962       .  S
Zn940       O945   2.004       .  S
Zn940       O948   2.001       .  S
Zn940       O951   2.012       .  S
Zn941       O942   1.943       .  S
Zn941       O949   1.996       .  S
Zn941       O952   2.007       .  S
Zn941       O953   2.016       .  S
O943        C955   1.273       .  A
O944        C956   1.274       .  A
O945        C957   1.270       .  A
O946        C955   1.280       .  A
O947        C957   1.272       .  A
O948        C956   1.271       .  A
O949        C958   1.269       .  A
O950        C959   1.279       .  A
O951        C958   1.269       .  A
O952        C959   1.270       .  A
O953        C960   1.273       .  A
O954        C960   1.273       .  A
C955        C982   1.486       .  S
C957        C992   1.470       .  S
C958        C965   1.496       .  S
C959        C975   1.498       .  S
C961        C962   1.419       .  A
C961        C966   1.407       .  A
C961       Br968   1.929       .  S
C962        C963   1.419       .  A
C963        C964   1.411       .  A
C963       Br970   1.941       .  S
C964        C965   1.421       .  A
C964       Br969   1.937       .  S
C965        C966   1.417       .  A
C966       Br967   1.944       .  S
C971        C972   1.415       .  A
C971        C976   1.421       .  A
C972        C973   1.408       .  A
C973        C974   1.399       .  A
C973       Br980   1.923       .  S
C974        C975   1.411       .  A
C974       Br979   1.925       .  S
C975        C976   1.428       .  A
C976       Br977   1.930       .  S
C981        C982   1.417       .  A
C981        C986   1.418       .  A
C981       Br988   1.922       .  S
C982        C983   1.406       .  A
C983        C984   1.400       .  A
C983       Br990   1.923       .  S
C984        C985   1.413       .  A
C984       Br989   1.921   1_655  S
C985        C986   1.417       .  A
C991        C992   1.401       .  A
C991        C996   1.405       .  A
C991       Br998   1.934       .  S
C992        C993   1.404       .  A
C993        C994   1.411       .  A
C993      Br1000   1.929       .  S
C994        C995   1.425       .  A
C994       Br999   1.937       .  S
C995        C996   1.425       .  A
C1001      C1002   1.394       .  A
C1001      C1006   1.403       .  A
C1001     Br1008   1.944       .  S
C1003      C1004   1.414       .  A
C1003     Br1010   1.928       .  S
C1004     Br1009   1.928       .  S
C1005      C1006   1.437       .  A
C1011      C1012   1.414       .  A
C1011      C1016   1.400       .  A
C1011     Br1018   1.946       .  S
C1013      C1014   1.418       .  A
C1013     Br1020   1.933       .  S
C1014     Br1019   1.933   1_655  S
C1015      C1016   1.423       .  A
C1016     Br1017   1.929   1_565  S
C1021      C1022   1.429       .  A
C1021      C1026   1.407       .  A
C1021     Br1028   1.930       .  S
C1023      C1024   1.407       .  A
C1023     Br1030   1.933       .  S
C1024     Br1029   1.935       .  S
C1025      C1026   1.401       .  A
C1026     Br1027   1.937       .  S
C1031      C1032   1.405       .  A
C1031      C1036   1.397       .  A
C1031     Br1038   1.941       .  S
C1033      C1034   1.411       .  A
C1033     Br1040   1.934       .  S
C1034     Br1039   1.934       .  S
C1035      C1036   1.420       .  A
C1036     Br1037   1.933       .  S
