geometry optimzed in LAMMPS
_audit_creation_date              2020-11-30 
_audit_creation_method            'lammps2cif' 
_symmetry_space_group_name_H-M    'P1' 
_symmetry_Int_Tables_number       1 
_symmetry_cell_setting            triclinic 
loop_ 
_symmetry_equiv_pos_as_xyz 
  x,y,z 
_cell_length_a                    36.27121124 
_cell_length_b                    36.141989767807154 
_cell_length_c                    33.93432069500012 
_cell_angle_alpha                 89.59340610345687 
_cell_angle_beta                  88.92031572170288 
_cell_angle_gamma                 89.72598185195565 
loop_ 
_atom_site_label 
_atom_site_type_symbol 
_atom_site_fract_x 
_atom_site_fract_y 
_atom_site_fract_z 
_atom_site_charge 
C1          C  0.66866360  0.61736621  0.62055275     0.87200
C2          C  0.65980883  0.65800877  0.61045767    -0.53100
C3          C  0.62308661  0.66644756  0.61415478     0.10100
C4          C  0.59874778  0.63405446  0.62783915     0.21000
C5          C  0.65301991  0.61214186  0.66230939    -0.53800
C6          C  0.61656495  0.62045427  0.66597038     0.10200
C7          C  0.64357559  0.59509246  0.59402543    -0.53300
C8          C  0.60717322  0.60372788  0.59751639     0.10800
H9          H  0.67972966  0.67847636  0.60071543     0.15300
H10         H  0.56907434  0.64125476  0.63123774     0.01000
H11         H  0.66901648  0.60146708  0.68669304     0.15600
H12         H  0.65398382  0.57383862  0.57416115     0.15400
C13         C  0.86664549  0.10118661  0.62268504     0.87200
C14         C  0.88220383  0.09822537  0.66426326    -0.53100
C15         C  0.91854317  0.10719944  0.66624004     0.10100
C16         C  0.93628708  0.11870297  0.62662485     0.21000
C17         C  0.87550512  0.14059289  0.60861833    -0.53800
C18         C  0.91173216  0.14992302  0.61051071     0.10200
C19         C  0.89271096  0.07643165  0.59741659    -0.53300
C20         C  0.92922335  0.08575386  0.59942019     0.10800
H21         H  0.86629776  0.08831593  0.68961804     0.15300
H22         H  0.96574367  0.12647964  0.62864576     0.01000
H23         H  0.85449049  0.15973368  0.59845901     0.15600
H24         H  0.88406987  0.05278795  0.58071765     0.15400
C25         C  0.10755548  0.66474445  0.92187963     0.87200
C26         C  0.14603745  0.65108906  0.93312430    -0.53100
C27         C  0.15096720  0.61378385  0.92988748     0.10100
C28         C  0.11687016  0.59303797  0.91497657     0.21000
C29         C  0.10281318  0.65022594  0.87984876    -0.53800
C30         C  0.10714419  0.61290028  0.87612331     0.10200
C31         C  0.08058928  0.64134762  0.94710251    -0.53300
C32         C  0.08512927  0.60384715  0.94369785     0.10800
H33         H  0.16766694  0.66940268  0.94285345     0.15300
H34         H  0.12092060  0.56276835  0.91160466     0.01000
H35         H  0.09638835  0.66704919  0.85444819     0.15600
H36         H  0.05953456  0.65368173  0.96609517     0.15400
C37         C  0.36920141  0.42757193  0.45489247     0.87200
C38         C  0.40032098  0.45050947  0.47223269    -0.53100
C39         C  0.43453930  0.44008105  0.45968155     0.10100
C40         C  0.43527413  0.40699851  0.43172400     0.21000
C41         C  0.37556173  0.42929404  0.41031788    -0.53800
C42         C  0.40990236  0.41847010  0.39788326     0.10200
C43         C  0.37910777  0.38771120  0.46675571    -0.53300
C44         C  0.41355771  0.37696166  0.45430062     0.10800
H45         H  0.39621928  0.47273079  0.49324539     0.15300
H46         H  0.46335518  0.39810880  0.42216970     0.01000
H47         H  0.35466369  0.43940715  0.39033807     0.15600
H48         H  0.36130250  0.36975115  0.48430404     0.15400
C49         C  0.61683006  0.86447019  0.11388003     0.87200
C50         C  0.61036848  0.87646835  0.15688991    -0.53100
C51         C  0.61625489  0.91324087  0.16405099     0.10100
C52         C  0.62883312  0.93508444  0.12664587     0.21000
C53         C  0.59284726  0.89083709  0.08960677    -0.53800
C54         C  0.59850119  0.92746061  0.09618416     0.10200
C55         C  0.65677064  0.87711627  0.10413836    -0.53300
C56         C  0.66347969  0.91396915  0.11078700     0.10800
H57         H  0.60102359  0.85730661  0.17972452     0.15300
H58         H  0.63360265  0.96496518  0.13176733     0.01000
H59         H  0.57227268  0.88122777  0.06922567     0.15600
H60         H  0.67839031  0.85898831  0.09316639     0.15400
C61         C  0.90480287  0.36789212  0.12417539     0.87200
C62         C  0.93051627  0.39348820  0.10014916    -0.53100
C63         C  0.92456204  0.43028973  0.10612771     0.10100
C64         C  0.89324820  0.43868300  0.13605684     0.21000
C65         C  0.90890160  0.38004341  0.16713435    -0.53800
C66         C  0.90333702  0.41686009  0.17376678     0.10200
C67         C  0.86551787  0.38114334  0.11402917    -0.53300
C68         C  0.85947131  0.41823232  0.11991630     0.10800
H69         H  0.95143584  0.38327540  0.07957141     0.15300
H70         H  0.88834902  0.46862502  0.14098872     0.01000
H71         H  0.91659521  0.36087717  0.19039691     0.15600
H72         H  0.84372276  0.36350546  0.10398723     0.15400
C73         C  0.40869075  0.17192082  0.94090586     0.87200
C74         C  0.36951075  0.15884773  0.95128539    -0.53100
C75         C  0.36248339  0.12224191  0.94386460     0.10100
C76         C  0.39711601  0.10141564  0.92657647     0.21000
C77         C  0.43390048  0.14518254  0.96332869    -0.53800
C78         C  0.42876841  0.10834288  0.95590801     0.10200
C79         C  0.41479221  0.16071106  0.89731652    -0.53300
C80         C  0.40897966  0.12414758  0.88945721     0.10800
H81         H  0.34883556  0.17751824  0.96357647     0.15300
H82         H  0.39239535  0.07177836  0.92010740     0.01000
H83         H  0.45465151  0.15498488  0.98330371     0.15600
H84         H  0.42528671  0.17905465  0.87443976     0.15400
C85         C  0.17914568  0.90085268  0.43993386     0.87200
C86         C  0.15889332  0.92817823  0.46750067    -0.53100
C87         C  0.12135816  0.92701599  0.46548122     0.10100
C88         C  0.10731447  0.89842340  0.43616175     0.21000
C89         C  0.16246504  0.86296865  0.45091874    -0.53800
C90         C  0.12503568  0.86195423  0.44922000     0.10200
C91         C  0.16410271  0.90925040  0.39860956    -0.53300
C92         C  0.12644330  0.90870600  0.39687471     0.10800
H93         H  0.17324449  0.94629262  0.48740858     0.15300
H94         H  0.07683440  0.89696206  0.43434242     0.01000
H95         H  0.17774500  0.83860343  0.45964280     0.15600
H96         H  0.18159479  0.91664896  0.37347984     0.15400
O97         O  0.02672298  0.10275958  0.06277511    -0.80200
O98         O  0.04814319  0.95623393  0.98081790    -0.64900
O99         O  0.00276986  0.04447557  0.02032783    -1.11500
C100        C  0.00977471  0.97818656  0.14232054     1.06700
O101        O  0.00291816  0.92738748  0.01128733    -0.78100
O102        O  0.95575061  0.94985425  0.06838366    -0.65700
Ni103      Ni  0.02270789  0.09167704  0.00809634     1.34900
C104        C  0.93634157  0.97905214  0.07064356     0.85400
O105        O  0.02444750  0.02010409  0.94547156    -0.78700
O106        O  0.01902094  0.08208234  0.95287861    -0.88900
C107        C  0.03130925  0.92627462  0.98893448     0.85000
O108        O  0.07430304  0.08085764  0.00581675    -0.67100
O109        O  0.01144947  0.94938415  0.12068469    -0.86400
C110        C  0.09341915  0.05151218  0.00284513     0.85800
C111        C  0.02020448  0.05297932  0.93167187     1.07400
H112        H  0.05190864  0.98694774  0.06265939     0.39200
O113        O  0.02679019  0.98671743  0.05348570    -1.09100
O114        O  0.95110805  0.01116646  0.07117672    -0.65700
Ni115      Ni  0.00215889  0.02900004  0.07483155     1.26300
O116        O  0.07836111  0.01955391  0.00200851    -0.66000
O117        O  0.00454443  0.01104174  0.12875712    -0.78200
C118        C  0.99773775  0.10473559  0.08410913     0.85200
O119        O  0.98067611  0.07498803  0.09272143    -0.65400
Ni120      Ni  0.00736736  0.93935058  0.06577297     1.27400
Ni121      Ni  0.02708985  0.00213357  0.99907584     1.26100
H122        H  0.97778317  0.04448174  0.01107803     0.39700
O123        O  0.43313608  0.99357854  0.53588276    -0.80200
O124        O  0.57504327  0.07470200  0.56507206    -0.64900
O125        O  0.49343426  0.03453438  0.51156999    -1.11500
C126        C  0.56020226  0.92260721  0.52805473     1.06700
O127        O  0.60978252  0.04671003  0.52059518    -0.78100
O128        O  0.59225756  0.99237737  0.47031720    -0.65700
Ni129      Ni  0.44444618  0.04492584  0.52799688     1.34900
C130        C  0.56463483  0.98885856  0.44829464     0.85400
O131        O  0.51423991  0.10542885  0.53278420    -0.78700
O132        O  0.45388817  0.09642549  0.52035337    -0.88900
C133        C  0.60645130  0.06897488  0.54925467     0.85000
O134        O  0.44983340  0.05039741  0.58359906    -0.67100
O135        O  0.58868376  0.94309591  0.53109470    -0.86400
C136        C  0.47720889  0.05376782  0.60599669     0.85800
C137        C  0.48206545  0.11717826  0.52397059     1.07400
H138        H  0.54696564  0.99759816  0.57031142     0.39200
O139        O  0.54918615  0.00568255  0.54318836    -1.09100
O140        O  0.53173577  0.98756387  0.46227612    -0.65700
Ni141      Ni  0.50977705  0.98448635  0.51515650     1.26300
O142        O  0.51031822  0.05348499  0.59245362    -0.66000
O143        O  0.52795711  0.93497925  0.52086417    -0.78200
C144        C  0.43596846  0.97077088  0.50771033     0.85200
O145        O  0.46686913  0.96584682  0.49035571    -0.65400
Ni146      Ni  0.59814613  0.99511310  0.52606683     1.27400
Ni147      Ni  0.53262393  0.05592789  0.53952914     1.26100
H148        H  0.49576588  0.04261584  0.48440802     0.39700
O149        O  0.52901821  0.50461055  0.93787340    -0.80200
O150        O  0.44860417  0.49340323  0.09256618    -0.64900
O151        O  0.49069514  0.53337836  0.99848658    -1.11500
C152        C  0.60345677  0.51605920  0.06833083     1.06700
O153        O  0.48073922  0.53462145  0.12360720    -0.78100
O154        O  0.53736869  0.57659942  0.09834641    -0.65700
Ni155      Ni  0.47822687  0.51317690  0.94897264     1.34900
C156        C  0.54171703  0.59500693  0.06666277     0.85400
O157        O  0.41873788  0.52027551  0.02551301    -0.78700
O158        O  0.42667570  0.52147628  0.95937427    -0.88900
C159        C  0.45817790  0.50794749  0.12456077     0.85000
O160        O  0.47323525  0.46191798  0.96189678    -0.67100
O161        O  0.58281961  0.51640740  0.09935296    -0.86400
C162        C  0.46789990  0.44457116  0.99403939     0.85800
C163        C  0.40634447  0.52369842  0.99053132     1.07400
H164        H  0.52486347  0.48066179  0.06040634     0.39200
O165        O  0.51868757  0.50673605  0.06035568    -1.09100
O166        O  0.54163651  0.57961719  0.03289332    -0.65700
Ni167      Ni  0.54135437  0.52836523  0.01484815     1.26300
O168        O  0.46662358  0.46100010  0.02715816    -0.66000
O169        O  0.59112210  0.52133270  0.03351989    -0.78200
C170        C  0.54966329  0.53260294  0.93479268     0.85200
O171        O  0.56057394  0.54779426  0.96601018    -0.65400
Ni172      Ni  0.53143450  0.52531150  0.11048743     1.27400
Ni173      Ni  0.46816388  0.51245655  0.04415569     1.26100
H174        H  0.48431570  0.55931148  0.99769747     0.39700
O175        O  0.94372222  0.52815122  0.58685883    -0.80200
O176        O  0.09358215  0.52625313  0.51466783    -0.64900
O177        O  0.99026047  0.53692424  0.52495029    -1.11500
C178        C  0.99401363  0.40524054  0.52775273     1.06700
O179        O  0.08473070  0.48709047  0.46654587    -0.78100
O180        O  0.02068964  0.45726561  0.44691842    -0.65700
Ni181      Ni  0.96940323  0.56865774  0.56350442     1.34900
C182        C  0.98845628  0.47078029  0.44499214     0.85400
O183        O  0.04880730  0.58583270  0.51662353    -0.78700
O184        O  0.99559815  0.60984721  0.54128053    -0.88900
C185        C  0.10629658  0.50623054  0.48716277     0.85000
O186        O  0.00406573  0.56337707  0.60424859    -0.67100
O187        O  0.02495907  0.40826943  0.50927904    -0.86400
C188        C  0.03523361  0.54781348  0.60621630     0.85800
C189        C  0.02738415  0.61314379  0.52472622     1.07400
H190        H  0.04145076  0.47269391  0.55158316     0.39200
O191        O  0.03276533  0.48115139  0.52631051    -1.09100
O192        O  0.97057052  0.48229007  0.47511459    -0.65700
Ni193      Ni  0.98066871  0.48504520  0.53073999     1.26300
O194        O  0.05213238  0.53450912  0.57652046    -0.66000
O195        O  0.97354229  0.43283700  0.53691787    -0.78200
C196        C  0.91923571  0.51263627  0.56699223     0.85200
O197        O  0.92891735  0.49260524  0.53814383    -0.65400
Ni198      Ni  0.05405802  0.44871711  0.48862420     1.27400
Ni199      Ni  0.04209556  0.53315729  0.52105813     1.26100
H200        H  0.98144393  0.54535256  0.49973563     0.39700
C201        C  0.27479112  0.94511776  0.43854065    -0.27500
C202        C  0.29623970  0.91812911  0.45716053     0.06100
C203        C  0.28049196  0.88409206  0.46749309     0.25700
C204        C  0.24341532  0.87740037  0.46015677    -0.12000
C205        C  0.22092550  0.90492426  0.44292951    -0.26000
C206        C  0.23748572  0.93881554  0.43175427     0.36500
C207        C  0.33373212  0.92716379  0.46965338     0.06100
F208        F  0.30079817  0.85768162  0.48585642    -0.19800
H209        H  0.23281677  0.85111741  0.47000186     0.15900
F210        F  0.21710854  0.96664456  0.41601230    -0.23500
H211        H  0.28655049  0.97179863  0.43098250     0.17700
C212        C  0.36189448  0.93496987  0.44194682     0.25700
C213        C  0.39640187  0.94665968  0.45461139    -0.12000
C214        C  0.40268955  0.95155885  0.49494248    -0.26000
C215        C  0.37477126  0.94252379  0.52261565     0.36600
C216        C  0.34067667  0.93014060  0.50997783    -0.27700
F217        F  0.35565970  0.93211776  0.40277996    -0.19800
H218        H  0.41746864  0.95386715  0.43287715     0.15900
F219        F  0.38015998  0.94659923  0.56183734    -0.23500
H220        H  0.31911692  0.92424969  0.53162603     0.17700
C221        C  0.08773525  0.69650736  0.50446204    -0.27500
C222        C  0.06119054  0.72366152  0.49590901     0.06100
C223        C  0.02374204  0.71427536  0.49653738     0.25700
C224        C  0.01304642  0.67821462  0.50594815    -0.12000
C225        C  0.03954365  0.65087011  0.51433349    -0.26000
C226        C  0.07711806  0.66030500  0.51346499     0.36500
C227        C  0.07311250  0.76153685  0.48598586     0.06100
F228        F  0.99754030  0.74013408  0.48884008    -0.19800
H229        H  0.98394358  0.67159853  0.50642527     0.15900
F230        F  0.10346888  0.63492482  0.52232067    -0.23500
H231        H  0.11678399  0.70338601  0.50392754     0.17700
C232        C  0.09534315  0.78105516  0.51200072     0.25700
C233        C  0.11088571  0.81462205  0.50030388    -0.12000
C234        C  0.10412399  0.82933717  0.46275913    -0.26000
C235        C  0.07983508  0.81122983  0.43774500     0.36600
C236        C  0.06453936  0.77730118  0.44929622    -0.27700
F237        F  0.10253981  0.76724402  0.54838170    -0.19800
H238        H  0.12900662  0.82879005  0.52018529     0.15900
F239        F  0.07286453  0.82509165  0.40134854    -0.23500
H240        H  0.04734589  0.76254496  0.42897622     0.17700
C241        C  0.04523552  0.99042586  0.24598675    -0.27500
C242        C  0.04592392  0.95339625  0.25888716     0.06100
C243        C  0.02880114  0.92632204  0.23635412     0.25700
C244        C  0.01397147  0.93559036  0.20000496    -0.12000
C245        C  0.01642923  0.97194362  0.18493168    -0.26000
C246        C  0.03065237  0.99976679  0.20916894     0.36500
C247        C  0.06674803  0.94243089  0.29418113     0.06100
F248        F  0.02784880  0.89053526  0.24877215    -0.19800
H249        H  0.00237689  0.91365261  0.18260155     0.15900
F250        F  0.03305673  0.03530705  0.19624483    -0.23500
H251        H  0.05794276  0.01171962  0.26338331     0.17700
C252        C  0.09686238  0.91787927  0.29076917     0.25700
C253        C  0.11634007  0.90714087  0.32416309    -0.12000
C254        C  0.10580833  0.92029345  0.36151549    -0.26000
C255        C  0.07575258  0.94501232  0.36484803     0.36600
C256        C  0.05661116  0.95614741  0.33134399    -0.27700
F257        F  0.10769545  0.90468524  0.25500239    -0.19800
H258        H  0.13940665  0.88818873  0.32092843     0.15900
F259        F  0.06549457  0.95931693  0.40027314    -0.23500
H260        H  0.03362618  0.97522319  0.33441285     0.17700
C261        C  0.42671247  0.26189776  0.99984312    -0.27500
C262        C  0.43197621  0.28874085  0.97002661     0.06100
C263        C  0.42705909  0.27773043  0.93073705     0.25700
C264        C  0.41889080  0.24088503  0.92151124    -0.12000
C265        C  0.41544348  0.21324178  0.95100517    -0.26000
C266        C  0.41811503  0.22494417  0.99065256     0.36500
C267        C  0.44300338  0.32788134  0.97935677     0.06100
F268        F  0.42929171  0.30291103  0.90092658    -0.19800
H269        H  0.41455461  0.23482874  0.89090771     0.15900
F270        F  0.41305329  0.20048492  0.02078202    -0.23500
H271        H  0.42993612  0.26933069  0.03043295     0.17700
C272        C  0.42521863  0.34872121  0.00930896     0.25700
C273        C  0.43475775  0.38603825  0.01558310    -0.12000
C274        C  0.46181072  0.40364536  0.99184671    -0.26000
C275        C  0.48025525  0.38246310  0.96282154     0.36600
C276        C  0.47120852  0.34520177  0.95702639    -0.27700
F277        F  0.39723914  0.33374121  0.03110975    -0.19800
H278        H  0.41969104  0.40170189  0.03776525     0.15900
F279        F  0.50704956  0.39791048  0.93969153    -0.23500
H280        H  0.48613471  0.32988421  0.93447695     0.17700
C281        C  0.41188675  0.11415035  0.77739173    -0.27500
C282        C  0.43922629  0.08692019  0.77125148     0.11300
C283        C  0.45533765  0.07056890  0.80473159     0.25700
C284        C  0.44405207  0.08114415  0.84315900    -0.12000
C285        C  0.41716810  0.10889408  0.84906996    -0.26000
C286        C  0.40131198  0.12530664  0.81558316     0.36500
C287        C  0.45008596  0.07582193  0.72988574     0.06100
F288        F  0.48183615  0.04421949  0.80029743    -0.19800
H289        H  0.45727029  0.06857735  0.86832569     0.15900
F290        F  0.37562722  0.15249502  0.81983256    -0.23500
H291        H  0.39913206  0.12743514  0.75235624     0.17700
C292        C  0.42318805  0.06422187  0.70336867     0.25700
C293        C  0.43261739  0.05604443  0.66403189    -0.12000
C294        C  0.46917120  0.05936565  0.64941112    -0.26000
C295        C  0.49632802  0.07054388  0.67616325     0.36600
C296        C  0.48684249  0.07839254  0.71586819    -0.27700
F297        F  0.38751457  0.06068022  0.71556035    -0.19800
H298        H  0.41081535  0.04756379  0.64474051     0.15900
F299        F  0.53181167  0.07520294  0.66379648    -0.23500
H300        H  0.50811546  0.08764359  0.73542984     0.17700
C301        C  0.28090086  0.05928602  0.97605425    -0.27500
C302        C  0.25014117  0.08234865  0.96906316     0.06100
C303        C  0.25693786  0.11717387  0.95144481     0.25700
C304        C  0.29302605  0.12885569  0.94233117    -0.12000
C305        C  0.32402650  0.10655995  0.95048462    -0.26000
C306        C  0.31731710  0.07116743  0.96698671     0.36500
C307        C  0.21123575  0.07144395  0.98126938     0.06100
F308        F  0.22847776  0.14013825  0.94269429    -0.19800
H309        H  0.29667657  0.15587732  0.92887775     0.15900
F310        F  0.34585946  0.04868030  0.97628160    -0.23500
H311        H  0.27685887  0.03245220  0.98980851     0.17700
C312        C  0.19524254  0.03739942  0.97067088     0.25700
C313        C  0.15755742  0.02992920  0.97932948    -0.12000
C314        C  0.13482354  0.05612005  0.99886164    -0.26000
C315        C  0.15161046  0.08926980  0.01107928     0.36600
C316        C  0.18892758  0.09658195  0.00248117    -0.27700
F317        F  0.21544760  0.01213067  0.95011795    -0.19800
H318        H  0.14580014  0.00428094  0.96922124     0.15900
F319        F  0.13178217  0.11529007  0.03099891    -0.23500
H320        H  0.20036917  0.12257738  0.01203539     0.17700
C321        C  0.93519099  0.47827634  0.25717302    -0.27500
C322        C  0.92668044  0.45622243  0.29036513     0.06100
C323        C  0.90729255  0.42312820  0.28518757     0.25700
C324        C  0.89786462  0.41178214  0.24741647    -0.12000
C325        C  0.90800435  0.43281229  0.21383673    -0.26000
C326        C  0.92596097  0.46678400  0.21923525     0.36500
C327        C  0.94149437  0.46543440  0.32957701     0.06100
F328        F  0.89971352  0.40046351  0.31635711    -0.19800
H329        H  0.88364337  0.38571199  0.24436916     0.15900
F330        F  0.93687958  0.48775040  0.18790874    -0.23500
H331        H  0.95023846  0.50383755  0.26055763     0.17700
C332        C  0.97969132  0.46914752  0.33416864     0.25700
C333        C  0.99438546  0.47235045  0.37170103    -0.12000
C334        C  0.97141065  0.47234457  0.40555853    -0.26000
C335        C  0.93291536  0.47100075  0.40084762     0.36600
C336        C  0.91820275  0.46715843  0.36313341    -0.27700
F337        F  0.00307873  0.46734557  0.30252927    -0.19800
H338        H  0.02406192  0.47382542  0.37431639     0.15900
F339        F  0.90963039  0.47136526  0.43263432    -0.23500
H340        H  0.88864785  0.46456936  0.36015549     0.17700
C341        C  0.70493593  0.49086270  0.04920931    -0.27500
C342        C  0.71707627  0.48511205  0.08787805     0.06100
C343        C  0.69293726  0.49300024  0.11950160     0.25700
C344        C  0.65679225  0.50442900  0.11263943    -0.12000
C345        C  0.64352195  0.50815072  0.07401618    -0.26000
C346        C  0.66846890  0.50222103  0.04218797     0.36500
C347        C  0.75374197  0.46831969  0.09553329     0.06100
F348        F  0.70417337  0.48889621  0.15722575    -0.19800
H349        H  0.63887257  0.50941310  0.13794647     0.15900
F350        F  0.65746558  0.50605337  0.00436725    -0.23500
H351        H  0.72328160  0.48511595  0.02442716     0.17700
C352        C  0.75605848  0.43406103  0.11523812     0.25700
C353        C  0.79038323  0.41823361  0.12324314    -0.12000
C354        C  0.82323172  0.43629704  0.11212341    -0.26000
C355        C  0.82094917  0.47082193  0.09270981     0.36600
C356        C  0.78644070  0.48645350  0.08415807    -0.27700
F357        F  0.72497448  0.41562887  0.12629283    -0.19800
H358        H  0.79126516  0.39182531  0.13848794     0.15900
F359        F  0.85194769  0.48897393  0.08095663    -0.23500
H360        H  0.78520342  0.51290201  0.06902032     0.17700
C361        C  0.90697937  0.26343923  0.09625978    -0.27500
C362        C  0.94002665  0.25212713  0.11371654     0.06100
C363        C  0.96096957  0.27859713  0.13334458     0.25700
C364        C  0.94930894  0.31534454  0.13507061    -0.12000
C365        C  0.91560636  0.32699206  0.11889003    -0.26000
C366        C  0.89484875  0.30037111  0.09845215     0.36500
C367        C  0.95445920  0.21377992  0.10852441     0.06100
F368        F  0.99279700  0.26893155  0.15124939    -0.19800
H369        H  0.96672772  0.33495158  0.14983275     0.15900
F370        F  0.86424448  0.30962897  0.07835814    -0.23500
H371        H  0.89109618  0.24386157  0.07962139     0.17700
C372        C  0.93237570  0.18232812  0.11547470     0.25700
C373        C  0.94688055  0.14665703  0.10924129    -0.12000
C374        C  0.98353130  0.14178146  0.09584932    -0.26000
C375        C  0.00564733  0.17338487  0.08981985     0.36600
C376        C  0.99113772  0.20869960  0.09580537    -0.27700
F377        F  0.89690977  0.18603784  0.12835920    -0.19800
H378        H  0.92914614  0.12293591  0.11386653     0.15900
F379        F  0.04131811  0.17044238  0.07733102    -0.23500
H380        H  0.00860410  0.23233610  0.08958893     0.17700
C381        C  0.51490738  0.06168127  0.99680841    -0.27500
C382        C  0.50168320  0.02732492  0.01032809     0.06100
C383        C  0.46444575  0.01859035  0.00318759     0.25700
C384        C  0.44109755  0.04431465  0.98448707    -0.12000
C385        C  0.45416580  0.07925459  0.97241169    -0.26000
C386        C  0.49193850  0.08688358  0.97753156     0.36500
C387        C  0.52684526  0.00165968  0.03241670     0.06100
F388        F  0.45060178  0.98509592  0.01389877    -0.19800
H389        H  0.41262837  0.03706726  0.98022797     0.15900
F390        F  0.50719719  0.11859852  0.96331230    -0.23500
H391        H  0.54320020  0.06954702  0.00171616     0.17700
C392        C  0.56402894  0.99636120  0.02030502     0.25700
C393        C  0.58783993  0.97393812  0.04242021    -0.12000
C394        C  0.57510042  0.95576169  0.07661062    -0.26000
C395        C  0.53798049  0.96022966  0.08836428     0.36600
C396        C  0.51434033  0.98332325  0.06687683    -0.27700
F397        F  0.57709264  0.01164601  0.98620026    -0.19800
H398        H  0.61594473  0.96963096  0.03201995     0.15900
F399        F  0.52444690  0.94165484  0.12035666    -0.23500
H400        H  0.48621412  0.98698474  0.07741203     0.17700
C401        C  0.55117929  0.97453569  0.33721242    -0.27500
C402        C  0.58757691  0.96789782  0.32382208     0.06100
C403        C  0.61621632  0.97139333  0.35092700     0.25700
C404        C  0.60848715  0.97958030  0.39059747    -0.12000
C405        C  0.57194186  0.98444355  0.40473621    -0.26000
C406        C  0.54332957  0.98251703  0.37715141     0.36500
C407        C  0.59554969  0.95502684  0.28254488     0.06100
F408        F  0.65186579  0.96650888  0.33909361    -0.19800
H409        H  0.63137906  0.98106761  0.41054391     0.15900
F410        F  0.50767175  0.98753895  0.38877182    -0.23500
H411        H  0.52859853  0.97218703  0.31696478     0.17700
C412        C  0.61496401  0.92173754  0.27600519     0.25700
C413        C  0.62219928  0.90915160  0.23764433    -0.12000
C414        C  0.61043001  0.92924987  0.20448217    -0.26000
C415        C  0.59120691  0.96278062  0.21083172     0.36600
C416        C  0.58362719  0.97530066  0.24948388    -0.27700
F417        F  0.62596031  0.90058735  0.30687672    -0.19800
H418        H  0.63696526  0.88326552  0.23386631     0.15900
F419        F  0.57838680  0.98267798  0.17987869    -0.23500
H420        H  0.56845189  0.00090105  0.25362686     0.17700
C421        C  0.55789169  0.77605288  0.10604442    -0.27500
C422        C  0.58283882  0.74947384  0.09137897     0.06100
C423        C  0.61987877  0.75996341  0.08547738     0.25700
C424        C  0.63135593  0.79639261  0.09309479    -0.12000
C425        C  0.60619818  0.82355507  0.10697909    -0.26000
C426        C  0.56925453  0.81231307  0.11389684     0.36500
C427        C  0.57025655  0.71069777  0.08372169     0.06100
F428        F  0.64530810  0.73462640  0.07333789    -0.19800
H429        H  0.66007430  0.80268058  0.08804404     0.15900
F430        F  0.54372294  0.83673002  0.12790093    -0.23500
H431        H  0.52926637  0.76875666  0.11120247     0.17700
C432        C  0.55279173  0.68983688  0.11373961     0.25700
C433        C  0.54232638  0.65309597  0.10721362    -0.12000
C434        C  0.54863711  0.63585702  0.07049040    -0.26000
C435        C  0.56483468  0.65727854  0.03983825     0.36600
C436        C  0.57572986  0.69410842  0.04659139    -0.27700
F437        F  0.54726973  0.70446065  0.15011981    -0.19800
H438        H  0.52993758  0.63777686  0.13155684     0.15900
F439        F  0.57142812  0.64238262  0.00377549    -0.23500
H440        H  0.58869180  0.70969583  0.02278195     0.17700
C441        C  0.84076413  0.93371572  0.07085835    -0.27500
C442        C  0.81692516  0.96174746  0.08478055     0.06100
C443        C  0.83282485  0.99637887  0.09344133     0.25700
C444        C  0.87118112  0.00247448  0.08783415    -0.12000
C445        C  0.89489773  0.97421962  0.07374757    -0.26000
C446        C  0.87872195  0.93968421  0.06520565     0.36500
C447        C  0.77602788  0.95382906  0.08988234     0.06100
F448        F  0.81130466  0.02461015  0.10675792    -0.19800
H449        H  0.88240259  0.02921674  0.09515435     0.15900
F450        F  0.89953604  0.91114185  0.05128889    -0.23500
H451        H  0.83004151  0.90649340  0.06471244     0.17700
C452        C  0.75712739  0.93344672  0.06124605     0.25700
C453        C  0.72058825  0.92180114  0.06788429    -0.12000
C454        C  0.70102249  0.93072930  0.10275656    -0.26000
C455        C  0.71880117  0.95321109  0.13036029     0.36600
C456        C  0.75589695  0.96424400  0.12414276    -0.27700
F457        F  0.77399797  0.92464586  0.02650081    -0.19800
H458        H  0.70752509  0.90535370  0.04558253     0.15900
F459        F  0.70110066  0.96282504  0.16437974    -0.23500
H460        H  0.76928091  0.97976906  0.14693428     0.17700
C461        C  0.43474267  0.20933377  0.51491452    -0.27500
C462        C  0.46149073  0.23034557  0.49469294     0.06100
C463        C  0.49668676  0.21502343  0.48743803     0.25700
C464        C  0.50412645  0.17846182  0.49873640    -0.12000
C465        C  0.47642869  0.15690071  0.51690123    -0.26000
C466        C  0.44187374  0.17290305  0.52553732     0.36500
C467        C  0.45147819  0.26773164  0.48075372     0.06100
F468        F  0.52313086  0.23466878  0.46782458    -0.19800
H469        H  0.53087149  0.16650898  0.49168749     0.15900
F470        F  0.41472440  0.15317744  0.54391368    -0.23500
H471        H  0.40786754  0.22102041  0.52191330     0.17700
C472        C  0.41803707  0.27340651  0.46116947     0.25700
C473        C  0.40628306  0.30907876  0.45213125    -0.12000
C474        C  0.42789572  0.33955786  0.46175817    -0.26000
C475        C  0.46209350  0.33402290  0.47963467     0.36600
C476        C  0.47369895  0.29822938  0.48929265    -0.27700
F477        F  0.39651999  0.24443587  0.45113169    -0.19800
H478        H  0.38010069  0.31299558  0.43777505     0.15900
F479        F  0.48324156  0.36320059  0.48969859    -0.23500
H480        H  0.49930412  0.29444979  0.50476272     0.17700
C481        C  0.26434675  0.43175734  0.46564887    -0.27500
C482        C  0.25850383  0.46976265  0.47064432     0.06100
C483        C  0.28859537  0.49355562  0.47297652     0.25700
C484        C  0.32422022  0.47943307  0.46977318    -0.12000
C485        C  0.33067177  0.44108350  0.46538207    -0.26000
C486        C  0.29995945  0.41750937  0.46222007     0.36500
C487        C  0.22078738  0.48435867  0.47206019     0.06100
F488        F  0.28349829  0.53067726  0.47602819    -0.19800
H489        H  0.34653248  0.49913612  0.46874057     0.15900
F490        F  0.30390773  0.38114697  0.45339913    -0.23500
H491        H  0.24114216  0.41317930  0.46330344     0.17700
C492        C  0.19642106  0.47632101  0.44174000     0.25700
C493        C  0.15938942  0.48586455  0.44569025    -0.12000
C494        C  0.14623251  0.50357768  0.47988397    -0.26000
C495        C  0.17132002  0.51419944  0.50886914     0.36600
C496        C  0.20840317  0.50446191  0.50489356    -0.27700
F497        F  0.20828943  0.45828058  0.40887597    -0.19800
H498        H  0.14074198  0.47798824  0.42267303     0.15900
F499        F  0.15979870  0.53165699  0.54222295    -0.23500
H500        H  0.22711005  0.51098334  0.52834884     0.17700
C501        C  0.43000850  0.43861542  0.20314490    -0.27500
C502        C  0.43687920  0.45875788  0.23741004     0.06100
C503        C  0.44691453  0.49618721  0.23414585     0.25700
C504        C  0.45180443  0.51254974  0.19719413    -0.12000
C505        C  0.44648183  0.49207913  0.16281828    -0.26000
C506        C  0.43457435  0.45511689  0.16603580     0.36500
C507        C  0.43311261  0.44122399  0.27666654     0.06100
F508        F  0.45204222  0.51698843  0.26673418    -0.19800
H509        H  0.46065364  0.54111372  0.19549260     0.15900
F510        F  0.42933627  0.43428132  0.13349751    -0.23500
H511        H  0.42215842  0.40977455  0.20509388     0.17700
C512        C  0.40052519  0.42287980  0.28786882     0.25700
C513        C  0.39463451  0.41246851  0.32706654    -0.12000
C514        C  0.42087266  0.42051753  0.35572297    -0.26000
C515        C  0.45503108  0.43539684  0.34371747     0.36600
C516        C  0.46099159  0.44565580  0.30440282    -0.27700
F517        F  0.37314079  0.41775269  0.26177035    -0.19800
H518        H  0.36851454  0.40001568  0.33546209     0.15900
F519        F  0.48153186  0.44284889  0.37012398    -0.23500
H520        H  0.48675698  0.45880843  0.29595253     0.17700
C521        C  0.99945563  0.49722222  0.07370130    -0.27500
C522        C  0.98870745  0.50625729  0.03516258     0.06100
C523        C  0.95566745  0.49140801  0.02107873     0.25700
C524        C  0.93417598  0.46787373  0.04502317    -0.12000
C525        C  0.94519188  0.45870193  0.08327728    -0.26000
C526        C  0.97798642  0.47355963  0.09753957     0.36500
C527        C  0.01276032  0.53010088  0.00965764     0.06100
F528        F  0.94510031  0.49813388  0.98354075    -0.19800
H529        H  0.90940701  0.45585677  0.03329562     0.15900
F530        F  0.98994988  0.46407953  0.13390129    -0.23500
H531        H  0.02480424  0.50819940  0.08516936     0.17700
C532        C  0.99876333  0.56175494  0.99065717     0.25700
C533        C  0.02230238  0.58496273  0.96868937    -0.12000
C534        C  0.06022437  0.57701697  0.96468308    -0.26000
C535        C  0.07379960  0.54434036  0.98212460     0.36600
C536        C  0.05039749  0.52154669  0.00481234    -0.27700
F537        F  0.96258511  0.57105696  0.99446477    -0.19800
H538        H  0.01079307  0.60942222  0.95489841     0.15900
F539        F  0.10980349  0.53475925  0.97844264    -0.23500
H540        H  0.06172431  0.49702779  0.01868532     0.17700
C541        C  0.25259057  0.59081300  0.92669433    -0.27500
C542        C  0.25602032  0.56692565  0.95930242     0.06100
C543        C  0.22435942  0.55800231  0.98191288     0.25700
C544        C  0.18998480  0.57270890  0.97177285    -0.12000
C545        C  0.18666735  0.59613649  0.93889151    -0.26000
C546        C  0.21829077  0.60530955  0.91655155     0.36500
C547        C  0.29288761  0.55199534  0.96920672     0.06100
F548        F  0.22661040  0.53493775  0.01352580    -0.19800
H549        H  0.16625475  0.56680176  0.99039529     0.15900
F550        F  0.21599910  0.62859157  0.88511463    -0.23500
H551        H  0.27669392  0.59863545  0.90929252     0.17700
C552        C  0.31507781  0.53557815  0.93978966     0.25700
C553        C  0.35136235  0.52545229  0.94754265    -0.12000
C554        C  0.36646853  0.53119309  0.98487971    -0.26000
C555        C  0.34363219  0.54593090  0.01504883     0.36600
C556        C  0.30716795  0.55629800  0.00712459    -0.27700
F557        F  0.30172954  0.52967181  0.90326750    -0.19800
H558        H  0.36787525  0.51355244  0.92387443     0.15900
F559        F  0.35689166  0.55199366  0.05156917    -0.23500
H560        H  0.29055102  0.56905345  0.03019055     0.17700
C561        C  0.04293308  0.53782495  0.71578036    -0.27500
C562        C  0.07702475  0.55460370  0.72232239     0.06100
C563        C  0.09984918  0.56422945  0.68991037     0.25700
C564        C  0.08736580  0.55935696  0.65144148    -0.12000
C565        C  0.05191442  0.54540485  0.64523794    -0.26000
C566        C  0.03033354  0.53341851  0.67759910     0.36500
C567        C  0.08506607  0.56761528  0.76236449     0.06100
F568        F  0.13262337  0.58120055  0.69546582    -0.19800
H569        H  0.10418758  0.56891213  0.62672177     0.15900
F570        F  0.99629845  0.51899510  0.67227109    -0.23500
H571        H  0.02508898  0.53019766  0.74045871     0.17700
C572        C  0.06103340  0.59334252  0.78009766     0.25700
C573        C  0.06780101  0.60634675  0.81767699    -0.12000
C574        C  0.09900724  0.59458959  0.83830476    -0.26000
C575        C  0.12291008  0.56832623  0.82097128     0.36600
C576        C  0.11600400  0.55504930  0.78298493    -0.27700
F577        F  0.03153915  0.60685979  0.76043839    -0.19800
H578        H  0.04883099  0.62636503  0.83047666     0.15900
F579        F  0.15357455  0.55680827  0.83987739    -0.23500
H580        H  0.13477513  0.53520700  0.76958561     0.17700
C581        C  0.09031438  0.85053091  0.94135774    -0.27500
C582        C  0.07136167  0.81878547  0.95424334     0.06100
C583        C  0.03869239  0.82260598  0.97651159     0.25700
C584        C  0.02543879  0.85766984  0.98632559    -0.12000
C585        C  0.04465853  0.88978710  0.97450178    -0.26000
C586        C  0.07729544  0.88586919  0.95162757     0.36500
C587        C  0.08507199  0.78144311  0.94439787     0.06100
F588        F  0.01953604  0.79228592  0.98869041    -0.19800
H589        H  0.00029346  0.85953274  0.00393549     0.15900
F590        F  0.09700791  0.91592912  0.93987449    -0.23500
H591        H  0.11552602  0.84786223  0.92397095     0.17700
C592        C  0.08164384  0.76774977  0.90621315     0.25700
C593        C  0.08983488  0.73071059  0.89822173    -0.12000
C594        C  0.10181168  0.70635724  0.92828382    -0.26000
C595        C  0.10668536  0.72108023  0.96627391     0.36600
C596        C  0.09814065  0.75808713  0.97418208    -0.27700
F597        F  0.06846091  0.78975014  0.87704084    -0.19800
H598        H  0.08532385  0.72180400  0.86855915     0.15900
F599        F  0.11864510  0.69927942  0.99621197    -0.23500
H600        H  0.10083414  0.76836299  0.00389684     0.17700
C601        C  0.98254231  0.02656746  0.52550979    -0.27500
C602        C  0.01572312  0.02080351  0.54518386     0.06100
C603        C  0.02121940  0.03787490  0.58152361     0.25700
C604        C  0.99327753  0.05956118  0.59850059    -0.12000
C605        C  0.95940657  0.06453462  0.57954909    -0.26000
C606        C  0.95466519  0.04847422  0.54226814     0.36500
C607        C  0.04411427  0.99639587  0.52773090     0.06100
F608        F  0.05307964  0.03249637  0.60117722    -0.19800
H609        H  0.99796698  0.07157409  0.62705135     0.15900
F610        F  0.92355573  0.05451740  0.52153491    -0.23500
H611        H  0.97831939  0.01409027  0.49701684     0.17700
C612        C  0.03655633  0.95883955  0.52192637     0.25700
C613        C  0.06247333  0.93623051  0.50297353    -0.12000
C614        C  0.09613159  0.95079856  0.48906505    -0.26000
C615        C  0.10409388  0.98831142  0.49588396     0.36600
C616        C  0.07824224  0.01082206  0.51534437    -0.27700
F617        F  0.00401360  0.94412148  0.53452565    -0.19800
H618        H  0.05602239  0.90729890  0.49892102     0.15900
F619        F  0.13581616  0.00377318  0.48194370    -0.23500
H620        H  0.08427255  0.03984435  0.51952133     0.17700
C621        C  0.93432345  0.32453342  0.56212528    -0.27500
C622        C  0.96045574  0.29587217  0.56391916     0.06100
C623        C  0.99732192  0.30313702  0.55351009     0.25700
C624        C  0.00782429  0.33861096  0.54136700    -0.12000
C625        C  0.98185242  0.36763064  0.53979716    -0.26000
C626        C  0.94485409  0.36023284  0.55057645     0.36500
C627        C  0.94885651  0.25823005  0.57562008     0.06100
F628        F  0.02301098  0.27571881  0.55432722    -0.19800
H629        H  0.03649703  0.34340580  0.53353687     0.15900
F630        F  0.91872348  0.38722317  0.54954777    -0.23500
H631        H  0.90573277  0.31924152  0.56998635     0.17700
C632        C  0.96333731  0.24075198  0.60910909     0.25700
C633        C  0.95170426  0.20518546  0.61994132    -0.12000
C634        C  0.92547704  0.18667653  0.59757152    -0.26000
C635        C  0.91161675  0.20402803  0.56354862     0.36600
C636        C  0.92305582  0.23959543  0.55296781    -0.27700
F637        F  0.98784229  0.25855137  0.63192749    -0.19800
H638        H  0.96244819  0.19252375  0.64640120     0.15900
F639        F  0.88759654  0.18637703  0.54000319    -0.23500
H640        H  0.91205131  0.25254253  0.52677415     0.17700
C641        C  0.76311520  0.11822265  0.63516892    -0.27500
C642        C  0.74871581  0.09321813  0.60829744     0.06100
C643        C  0.77196812  0.06610981  0.59162713     0.25700
C644        C  0.80976886  0.06673579  0.59802339    -0.12000
C645        C  0.82521073  0.09425537  0.62165934    -0.26000
C646        C  0.80096868  0.11845169  0.64227794     0.36500
C647        C  0.71050172  0.09673484  0.59452529     0.06100
F648        F  0.75815788  0.03972600  0.56779079    -0.19800
H649        H  0.82633721  0.04621807  0.58306920     0.15900
F650        F  0.81429156  0.14414798  0.66722632    -0.23500
H651        H  0.74544566  0.13880659  0.64898583     0.17700
C652        C  0.67994112  0.09447157  0.62051548     0.25700
C653        C  0.64461933  0.08922993  0.60547516    -0.12000
C654        C  0.63985009  0.08615981  0.56459956    -0.26000
C655        C  0.66983285  0.09294914  0.53886634     0.36600
C656        C  0.70476606  0.09843764  0.55380514    -0.27700
F657        F  0.68459700  0.09397978  0.66010900    -0.19800
H658        H  0.62171009  0.08431467  0.62575248     0.15900
F659        F  0.66583121  0.09167132  0.49919807    -0.23500
H660        H  0.72791253  0.10152715  0.53340418     0.17700
C661        C  0.97529596  0.05870892  0.74283647    -0.27500
C662        C  0.97466135  0.08456755  0.77352761     0.06100
C663        C  0.95714727  0.11903777  0.76763173     0.25700
C664        C  0.93986390  0.12684951  0.73200340    -0.12000
C665        C  0.93974664  0.10047108  0.70204372    -0.26000
C666        C  0.95760114  0.06636857  0.70754102     0.36500
C667        C  0.99009401  0.07445275  0.81230666     0.06100
F668        F  0.95505224  0.14435716  0.79694852    -0.19800
H669        H  0.92566564  0.15303339  0.72816276     0.15900
F670        F  0.95643826  0.03981687  0.67952736    -0.23500
H671        H  0.98874756  0.03213166  0.74660359     0.17700
C672        C  0.98019166  0.04094166  0.83103113     0.25700
C673        C  0.99251316  0.03277465  0.86889433    -0.12000
C674        C  0.01415140  0.05819154  0.88909684    -0.26000
C675        C  0.02529702  0.09103095  0.86978063     0.36600
C676        C  0.01351730  0.09889157  0.83164211    -0.27700
F677        F  0.95654436  0.01722755  0.81386443    -0.19800
H678        H  0.98310711  0.00765019  0.88340198     0.15900
F679        F  0.04686523  0.11594690  0.88813417    -0.23500
H680        H  0.02203152  0.12450753  0.81750798     0.17700
C681        C  0.52380987  0.54953708  0.56780632    -0.27500
C682        C  0.53457439  0.53871508  0.52957986     0.06100
C683        C  0.56663174  0.55353546  0.51216713     0.25700
C684        C  0.58883394  0.57680999  0.53379920    -0.12000
C685        C  0.57967640  0.58524626  0.57317557    -0.26000
C686        C  0.54628618  0.57253403  0.58966890     0.36500
C687        C  0.51321310  0.51058246  0.50897557     0.06100
F688        F  0.57771180  0.54369092  0.47525150    -0.19800
H689        H  0.61410012  0.58705665  0.52024603     0.15900
F690        F  0.53663523  0.57995401  0.62762738    -0.23500
H691        H  0.49862113  0.53898255  0.58125571     0.17700
C692        C  0.50381171  0.47724348  0.52817885     0.25700
C693        C  0.48049788  0.45228299  0.51017496    -0.12000
C694        C  0.46682186  0.46010392  0.47277048    -0.26000
C695        C  0.47774136  0.49231986  0.45260328     0.36600
C696        C  0.50100434  0.51739609  0.47060829    -0.27700
F697        F  0.51623857  0.46942782  0.56481642    -0.19800
H698        H  0.47134679  0.42794933  0.52633758     0.15900
F699        F  0.46338838  0.50098315  0.41704700    -0.23500
H700        H  0.50783301  0.54303217  0.45550254     0.17700
C701        C  0.56879690  0.74146571  0.56350334    -0.27500
C702        C  0.58693423  0.77308508  0.57671649     0.06100
C703        C  0.61428372  0.76957840  0.60533570     0.25700
C704        C  0.62511514  0.73469936  0.61837514    -0.12000
C705        C  0.60836628  0.70299800  0.60364722    -0.26000
C706        C  0.57941319  0.70647468  0.57691691     0.36500
C707        C  0.57880741  0.80954479  0.55936316     0.06100
F708        F  0.63088045  0.79990073  0.62020461    -0.19800
H709        H  0.64701978  0.73234209  0.63953626     0.15900
F710        F  0.56309588  0.67609070  0.56186799    -0.23500
H711        H  0.54756138  0.74380850  0.54158919     0.17700
C712        C  0.60761562  0.83116059  0.54361234     0.25700
C713        C  0.60085728  0.86734246  0.53153174    -0.12000
C714        C  0.56522737  0.88253973  0.53462217    -0.26000
C715        C  0.53577637  0.85981036  0.54734954     0.36600
C716        C  0.54268318  0.82351413  0.55974091    -0.27700
F717        F  0.64249494  0.81748938  0.54072531    -0.19800
H718        H  0.62383520  0.88385069  0.52079653     0.15900
F719        F  0.50078192  0.87315430  0.55009244    -0.23500
H720        H  0.52012144  0.80686957  0.57125937     0.17700
C721        C  0.82008296  0.53935352  0.55348565    -0.27500
C722        C  0.81184280  0.55357751  0.59090900     0.06100
C723        C  0.83736342  0.55090867  0.62108206     0.25700
C724        C  0.87159668  0.53501083  0.61355425    -0.12000
C725        C  0.88072814  0.52177520  0.57577267    -0.26000
C726        C  0.85453870  0.52341981  0.54579158     0.36500
C727        C  0.77630414  0.57079215  0.59898534     0.06100
F728        F  0.82948428  0.56479447  0.65737244    -0.19800
H729        H  0.89152580  0.53426909  0.63694286     0.15900
F730        F  0.86299592  0.51196385  0.50868218    -0.23500
H731        H  0.80012596  0.54132526  0.53019601     0.17700
C732        C  0.77018730  0.60803744  0.58957326     0.25700
C733        C  0.73608435  0.62425392  0.59817444    -0.12000
C734        C  0.70773593  0.60320134  0.61607545    -0.26000
C735        C  0.71490122  0.56587697  0.62632946     0.36600
C736        C  0.74894649  0.55000726  0.61787696    -0.27700
F737        F  0.79711802  0.62851060  0.57182083    -0.19800
H738        H  0.73212944  0.65269838  0.58946646     0.15900
F739        F  0.68835131  0.54419127  0.64309906    -0.23500
H740        H  0.75387241  0.52127086  0.62556572     0.17700
C741        C  0.57648520  0.56579395  0.74958128    -0.27500
C742        C  0.57396519  0.59260679  0.77925960     0.06100
C743        C  0.58160488  0.62981819  0.76994378     0.25700
C744        C  0.59285730  0.63960732  0.73166554    -0.12000
C745        C  0.59654545  0.61238140  0.70269692    -0.26000
C746        C  0.58777736  0.57556294  0.71158456     0.36500
C747        C  0.56586639  0.58052976  0.82006486     0.06100
F748        F  0.57913623  0.65635540  0.79798593    -0.19800
H749        H  0.60043423  0.66797740  0.72508607     0.15900
F750        F  0.59260585  0.54872937  0.68412752    -0.23500
H751        H  0.57149633  0.53688413  0.75631588     0.17700
C752        C  0.53647676  0.55634456  0.82794555     0.25700
C753        C  0.53194325  0.54071206  0.86523618    -0.12000
C754        C  0.55616545  0.54936296  0.89565127    -0.26000
C755        C  0.58463763  0.57486306  0.88834113     0.36600
C756        C  0.58960986  0.59006204  0.85060990    -0.27700
F757        F  0.51222581  0.54769512  0.79945875    -0.19800
H758        H  0.50909880  0.52197203  0.87035448     0.15900
F759        F  0.60820762  0.58423461  0.91717117    -0.23500
H760        H  0.61271468  0.60833279  0.84492349     0.17700
loop_ 
_geom_bond_atom_site_label_1 
_geom_bond_atom_site_label_2 
_geom_bond_distance 
_geom_bond_site_symmetry_2 
_ccdc_geom_bond_type 
C1            C2   1.540       .  S
C1            C7   1.528       .  S
C1            C5   1.527       .  S
C1          C734   1.510       .  S
C2            H9   1.082       .  S
C2            C3   1.369       .  D
C3            C4   1.534       .  S
C3          C705   1.467       .  S
C4            C8   1.534       .  S
C4            C6   1.534       .  S
C4           H10   1.110       .  S
C5           H11   1.087       .  S
C5            C6   1.358       .  D
C6          C745   1.459       .  S
C7           H12   1.087       .  S
C7            C8   1.358       .  D
C8          C685   1.473       .  S
C13          C14   1.532       .  S
C13          C19   1.550       .  S
C13          C17   1.532       .  S
C13         C645   1.526       .  S
C14          H21   1.086       .  S
C14          C15   1.362       .  D
C15          C16   1.535       .  S
C15         C665   1.468       .  S
C16          C20   1.537       .  S
C16          C18   1.538       .  S
C16          H22   1.110       .  S
C17          H23   1.086       .  S
C17          C18   1.361       .  D
C18         C634   1.482       .  S
C19          H24   1.080       .  S
C19          C20   1.371       .  D
C20         C605   1.488       .  S
C25          C26   1.532       .  S
C25          C31   1.540       .  S
C25          C29   1.536       .  S
C25         C594   1.534       .  S
C26          H33   1.086       .  S
C26          C27   1.364       .  D
C27          C28   1.545       .  S
C27         C545   1.477       .  S
C28          C32   1.545       .  S
C28          C30   1.543       .  S
C28          H34   1.110       .  S
C29          H35   1.080       .  S
C29          C30   1.364       .  D
C30         C574   1.483       .  S
C31          H36   1.086       .  S
C31          C32   1.370       .  D
C32         C534   1.496       .  S
C37          C38   1.532       .  S
C37          C43   1.536       .  S
C37          C41   1.527       .  S
C37         C485   1.515       .  S
C38          H45   1.086       .  S
C38          C39   1.357       .  D
C39          C40   1.531       .  S
C39         C694   1.458       .  S
C40          C44   1.536       .  S
C40          C42   1.538       .  S
C40          H46   1.110       .  S
C41          H47   1.087       .  S
C41          C42   1.364       .  D
C42         C514   1.479       .  S
C43          H48   1.085       .  S
C43          C44   1.367       .  D
C44         C474   1.468       .  S
C49          C50   1.539       .  S
C49          C55   1.550       .  S
C49          C53   1.533       .  S
C49         C425   1.550       .  S
C50          H57   1.086       .  S
C50          C51   1.371       .  D
C51          C52   1.552       .  S
C51         C414   1.504       .  S
C52          C56   1.556       .  S
C52          C54   1.551       .  S
C52          H58   1.110       .  S
C53          H59   1.087       .  S
C53          C54   1.361       .  D
C54         C394   1.487       .  S
C55          H60   1.082       .  S
C55          C56   1.376       .  D
C56         C454   1.512       .  S
C61          C62   1.536       .  S
C61          C67   1.545       .  S
C61          C65   1.536       .  S
C61         C365   1.538       .  S
C62          H69   1.087       .  S
C62          C63   1.362       .  D
C63          C64   1.540       .  S
C63         C525   1.480       .  S
C64          C68   1.545       .  S
C64          C66   1.547       .  S
C64          H70   1.109       .  S
C65          H71   1.086       .  S
C65          C66   1.365       .  D
C66         C325   1.494       .  S
C67          H72   1.080       .  S
C67          C68   1.373       .  D
C68         C354   1.492       .  S
C73          C74   1.534       .  S
C73          C79   1.548       .  S
C73          C77   1.535       .  S
C73         C265   1.556       .  S
C74          H81   1.086       .  S
C74          C75   1.374       .  D
C75          C76   1.568       .  S
C75         C305   1.520       .  S
C76          C80   1.554       .  S
C76          C78   1.556       .  S
C76          H82   1.110       .  S
C77          H83   1.085       .  S
C77          C78   1.371       .  D
C78         C385   1.506       .  S
C79          H84   1.082       .  S
C79          C80   1.368       .  D
C80         C285   1.505       .  S
C85          C86   1.540       .  S
C85          C91   1.542       .  S
C85          C89   1.540       .  S
C85         C205   1.529       .  S
C86          H93   1.086       .  S
C86          C87   1.365       .  D
C87          C88   1.535       .  S
C87         C614   1.480       .  S
C88          C92   1.535       .  S
C88          C90   1.530       .  S
C88          H94   1.110       .  S
C89          H95   1.081       .  S
C89          C90   1.361       .  D
C90         C234   1.471       .  S
C91          H96   1.086       .  S
C91          C92   1.369       .  D
C92         C254   1.483       .  S
O97        Ni103   1.909       .  S
O97         C118   1.267   1_455  A
O98        Ni121   1.924   1_565  S
O98         C107   1.272       .  A
O99        Ni103   1.896       .  S
O99        Ni121   1.902   1_554  S
O99        Ni115   1.928       .  S
O99         H122   0.965   1_455  S
C100        O117   1.285   1_565  A
C100        O109   1.279       .  A
C100        C245   1.486       .  S
O101       Ni120   1.912       .  S
O101        C107   1.268   1_554  A
O102       Ni120   1.909   1_655  S
O102        C104   1.268       .  A
Ni103       O106   1.915   1_554  S
Ni103       O108   1.910       .  S
C104        O114   1.281   1_565  A
C104        C445   1.516       .  S
O105       Ni121   1.931       .  S
O105        C111   1.284       .  A
O106        C111   1.279       .  A
C107        C585   1.486       .  S
O108        C110   1.268       .  A
O109       Ni120   1.909       .  S
C110        O116   1.281       .  A
C110        C314   1.515   1_554  S
C111        C674   1.476       .  S
H112        O113   0.968       .  S
O113       Ni121   1.925   1_564  S
O113       Ni115   1.907   1_565  S
O113       Ni120   1.895       .  S
O114       Ni115   1.970   1_655  S
Ni115       O119   1.929   1_455  S
Ni115       O117   1.941       .  S
O116       Ni121   1.971   1_554  S
C118        O119   1.273       .  A
C118        C374   1.487       .  S
O123       Ni129   1.918   1_565  S
O123        C144   1.269       .  A
O124       Ni147   1.910       .  S
O124        C133   1.267       .  A
O125       Ni129   1.889       .  S
O125       Ni147   1.895       .  S
O125       Ni141   1.905   1_545  S
O125        H148   0.967       .  S
C126        O143   1.277       .  A
C126        O135   1.280       .  A
C126        C714   1.475       .  S
O127       Ni146   1.921   1_545  S
O127        C133   1.270       .  A
O128       Ni146   1.911       .  S
O128        C130   1.269       .  A
Ni129       O132   1.909       .  S
Ni129       O134   1.912       .  S
C130        O140   1.277       .  A
C130        C405   1.506       .  S
O131       Ni147   1.920       .  S
O131        C137   1.280       .  A
O132        C137   1.279       .  A
C133        C654   1.470       .  S
O134        C136   1.269       .  A
O135       Ni146   1.919       .  S
C136        O142   1.278       .  A
C136        C294   1.511       .  S
C137        C465   1.468       .  S
H138        O139   0.966   1_565  S
O139       Ni147   1.914       .  S
O139       Ni141   1.899   1_545  S
O139       Ni146   1.896   1_545  S
O140       Ni141   1.952       .  S
Ni141       O145   1.911       .  S
Ni141       O143   1.914       .  S
O142       Ni147   1.957       .  S
C144        O145   1.269       .  A
C144        C214   1.469       .  S
O149       Ni155   1.898       .  S
O149        C170   1.264       .  A
O150       Ni173   1.903       .  S
O150        C159   1.265       .  A
O151       Ni155   1.900       .  S
O151       Ni173   1.893   1_556  S
O151       Ni167   1.937   1_556  S
O151        H174   0.965       .  S
C152        O169   1.284       .  A
C152        O161   1.280       .  A
C152        C345   1.496       .  S
O153       Ni172   1.913       .  S
O153        C159   1.267       .  A
O154       Ni172   1.908       .  S
O154        C156   1.268       .  A
Ni155       O158   1.919       .  S
Ni155       O160   1.909       .  S
C156        O166   1.277       .  A
C156        C434   1.506       .  S
O157       Ni173   1.931       .  S
O157        C163   1.282   1_554  A
O158        C163   1.280       .  A
C159        C505   1.472       .  S
O160        C162   1.266       .  A
O161       Ni172   1.921       .  S
C162        O168   1.275   1_556  A
C162        C274   1.499       .  S
C163        C554   1.486       .  S
H164        O165   0.968       .  S
O165       Ni173   1.933       .  S
O165       Ni167   1.901       .  S
O165       Ni172   1.899       .  S
O166       Ni167   1.955       .  S
Ni167       O171   1.916   1_554  S
Ni167       O169   1.939       .  S
O168       Ni173   1.952       .  S
C170        O171   1.267       .  A
C170        C754   1.471       .  S
O175       Ni181   1.899       .  S
O175        C196   1.261       .  A
O176       Ni199   1.892       .  S
O176        C185   1.264       .  A
O177       Ni181   1.891       .  S
O177       Ni199   1.887   1_655  S
O177       Ni193   1.917       .  S
O177        H200   0.966       .  S
C178        O195   1.277       .  A
C178        O187   1.280   1_655  A
C178        C625   1.483       .  S
O179       Ni198   1.921       .  S
O179        C185   1.270       .  A
O180       Ni198   1.902       .  S
O180        C182   1.268   1_455  A
Ni181       O184   1.913       .  S
Ni181       O186   1.894   1_655  S
C182        O192   1.272       .  A
C182        C334   1.485       .  S
O183       Ni199   1.925       .  S
O183        C189   1.281       .  A
O184        C189   1.279   1_655  A
C185        C494   1.468       .  S
O186        C188   1.263       .  A
O187       Ni198   1.927       .  S
C188        O194   1.266       .  A
C188        C565   1.468       .  S
C189        C225   1.473       .  S
H190        O191   0.966       .  S
O191       Ni199   1.918       .  S
O191       Ni193   1.897   1_455  S
O191       Ni198   1.892       .  S
O192       Ni193   1.933       .  S
Ni193       O197   1.908       .  S
Ni193       O195   1.915       .  S
O194       Ni199   1.925       .  S
C196        O197   1.265       .  A
C196        C725   1.459       .  S
C201        C202   1.399       .  A
C201        C206   1.397       .  A
C201        H211   1.083       .  S
C202        C207   1.471       .  S
C202        C203   1.398       .  A
C203        C204   1.395       .  A
C203        F208   1.358       .  S
C204        C205   1.414       .  A
C204        H209   1.075       .  S
C205        C206   1.413       .  A
C206        F210   1.358       .  S
C207        C212   1.403       .  A
C207        C216   1.401       .  A
C212        C213   1.399       .  A
C212        F217   1.357       .  S
C213        C214   1.404       .  A
C213        H218   1.083       .  S
C214        C215   1.406       .  A
C215        C216   1.393       .  A
C215        F219   1.358       .  S
C216        H220   1.084       .  S
C221        C222   1.404       .  A
C221        C226   1.396       .  A
C221        H231   1.084       .  S
C222        C227   1.472       .  S
C222        C223   1.401       .  A
C223        C224   1.395       .  A
C223        F228   1.357   1_455  S
C224        C225   1.407       .  A
C224        H229   1.083   1_455  S
C225        C226   1.406       .  A
C226        F230   1.358       .  S
C227        C232   1.403       .  A
C227        C236   1.405       .  A
C232        C233   1.392       .  A
C232        F237   1.358       .  S
C233        C234   1.403       .  A
C233        H238   1.084       .  S
C234        C235   1.402       .  A
C235        C236   1.399       .  A
C235        F239   1.357       .  S
C236        H240   1.083       .  S
C241        C242   1.405       .  A
C241        C246   1.404       .  A
C241        H251   1.083   1_565  S
C242        C247   1.479       .  S
C242        C243   1.401       .  A
C243        C244   1.393       .  A
C243        F248   1.358       .  S
C244        C245   1.409       .  A
C244        H249   1.083       .  S
C245        C246   1.409       .  A
C246        F250   1.357   1_565  S
C247        C252   1.408       .  A
C247        C256   1.400       .  A
C252        C253   1.398       .  A
C252        F257   1.358       .  S
C253        C254   1.403       .  A
C253        H258   1.083       .  S
C254        C255   1.410       .  A
C255        C256   1.399       .  A
C255        F259   1.357       .  S
C256        H260   1.083       .  S
C261        C262   1.408       .  A
C261        C266   1.411       .  A
C261        H271   1.083   1_556  S
C262        C267   1.509       .  S
C262        C263   1.409       .  A
C263        C264   1.404       .  A
C263        F268   1.357       .  S
C264        C265   1.413       .  A
C264        H269   1.077       .  S
C265        C266   1.418       .  A
C266        F270   1.357   1_556  S
C267        C272   1.414   1_556  A
C267        C276   1.408       .  A
C272        C273   1.413       .  A
C272        F277   1.357       .  S
C273        C274   1.409   1_554  A
C273        H278   1.083       .  S
C274        C275   1.409       .  A
C275        C276   1.404       .  A
C275        F279   1.357       .  S
C276        H280   1.083       .  S
C281        C282   1.408       .  A
C281        C286   1.406       .  A
C281        H291   1.083       .  S
C282        C287   1.507       .  S
C282        C283   1.412       .  A
C283        C284   1.414       .  A
C283        F288   1.357       .  S
C284        C285   1.408       .  A
C284        H289   1.083       .  S
C285        C286   1.409       .  A
C286        F290   1.357       .  S
C287        C292   1.407       .  A
C287        C296   1.410       .  A
C292        C293   1.405       .  A
C292        F297   1.357       .  S
C293        C294   1.412       .  A
C293        H298   1.083       .  S
C294        C295   1.414       .  A
C295        C296   1.415       .  A
C295        F299   1.357       .  S
C296        H300   1.083       .  S
C301        C302   1.412       .  A
C301        C306   1.418       .  A
C301        H311   1.083       .  S
C302        C307   1.516       .  S
C302        C303   1.410       .  A
C303        C304   1.406       .  A
C303        F308   1.357       .  S
C304        C305   1.411       .  A
C304        H309   1.083       .  S
C305        C306   1.413       .  A
C306        F310   1.354       .  S
C307        C312   1.414       .  A
C307        C316   1.407   1_556  A
C312        C313   1.419       .  A
C312        F317   1.357       .  S
C313        C314   1.413       .  A
C313        H318   1.083       .  S
C314        C315   1.415   1_556  A
C315        C316   1.405       .  A
C315        F319   1.357       .  S
C316        H320   1.083       .  S
C321        C322   1.406       .  A
C321        C326   1.403       .  A
C321        H331   1.083       .  S
C322        C327   1.485       .  S
C322        C323   1.404       .  A
C323        C324   1.398       .  A
C323        F328   1.358       .  S
C324        C325   1.409       .  A
C324        H329   1.083       .  S
C325        C326   1.407       .  A
C326        F330   1.355       .  S
C327        C332   1.404       .  A
C327        C336   1.407       .  A
C332        C333   1.396       .  A
C332        F337   1.357   1_655  S
C333        C334   1.407       .  A
C333        H338   1.083   1_655  S
C334        C335   1.409       .  A
C335        C336   1.404       .  A
C335        F339   1.357       .  S
C336        H340   1.083       .  S
C341        C342   1.406       .  A
C341        C346   1.407       .  A
C341        H351   1.083       .  S
C342        C347   1.486       .  S
C342        C343   1.402       .  A
C343        C344   1.396       .  A
C343        F348   1.358       .  S
C344        C345   1.410       .  A
C344        H349   1.083       .  S
C345        C346   1.413       .  A
C346        F350   1.357       .  S
C347        C352   1.406       .  A
C347        C356   1.404       .  A
C352        C353   1.398       .  A
C352        F357   1.358       .  S
C353        C354   1.405       .  A
C353        H358   1.083       .  S
C354        C355   1.410       .  A
C355        C356   1.405       .  A
C355        F359   1.356       .  S
C356        H360   1.083       .  S
C361        C362   1.405       .  A
C361        C366   1.405       .  A
C361        H371   1.083       .  S
C362        C367   1.490       .  S
C362        C363   1.404       .  A
C363        C364   1.393       .  A
C363        F368   1.358       .  S
C364        C365   1.411       .  A
C364        H369   1.083       .  S
C365        C366   1.418       .  A
C366        F370   1.353       .  S
C367        C372   1.410       .  A
C367        C376   1.403       .  A
C372        C373   1.406       .  A
C372        F377   1.357       .  S
C373        C374   1.407       .  A
C373        H378   1.083       .  S
C374        C375   1.410   1_655  A
C375        C376   1.393   1_455  A
C375        F379   1.358       .  S
C376        H380   1.083   1_655  S
C381        C382   1.404   1_556  A
C381        C386   1.399       .  A
C381        H391   1.082   1_556  S
C382        C387   1.504       .  S
C382        C383   1.414       .  A
C383        C384   1.410   1_554  A
C383        F388   1.357   1_545  S
C384        C385   1.407       .  A
C384        H389   1.079       .  S
C385        C386   1.413       .  A
C386        F390   1.357       .  S
C387        C392   1.415   1_545  A
C387        C396   1.409   1_545  A
C392        C393   1.405       .  A
C392        F397   1.357   1_564  S
C393        C394   1.401       .  A
C393        H398   1.083       .  S
C394        C395   1.406       .  A
C395        C396   1.404       .  A
C395        F399   1.358       .  S
C396        H400   1.082       .  S
C401        C402   1.408       .  A
C401        C406   1.411       .  A
C401        H411   1.083       .  S
C402        C407   1.502       .  S
C402        C403   1.407       .  A
C403        C404   1.403       .  A
C403        F408   1.358       .  S
C404        C405   1.412       .  A
C404        H409   1.083       .  S
C405        C406   1.413       .  A
C406        F410   1.357       .  S
C407        C412   1.408       .  A
C407        C416   1.409       .  A
C412        C413   1.402       .  A
C412        F417   1.357       .  S
C413        C414   1.407       .  A
C413        H418   1.083       .  S
C414        C415   1.411       .  A
C415        C416   1.412       .  A
C415        F419   1.357       .  S
C416        H420   1.083   1_565  S
C421        C422   1.404       .  A
C421        C426   1.404       .  A
C421        H431   1.083       .  S
C422        C427   1.502       .  S
C422        C423   1.408       .  A
C423        C424   1.410       .  A
C423        F428   1.357       .  S
C424        C425   1.414       .  A
C424        H429   1.078       .  S
C425        C426   1.417       .  A
C426        F430   1.358       .  S
C427        C432   1.406       .  A
C427        C436   1.409       .  A
C432        C433   1.403       .  A
C432        F437   1.357       .  S
C433        C434   1.412       .  A
C433        H438   1.083       .  S
C434        C435   1.413       .  A
C435        C436   1.412       .  A
C435        F439   1.357       .  S
C436        H440   1.083       .  S
C441        C442   1.407       .  A
C441        C446   1.404       .  A
C441        H451   1.083       .  S
C442        C447   1.519       .  S
C442        C443   1.416       .  A
C443        C444   1.419   1_565  A
C443        F448   1.357   1_565  S
C444        C445   1.412   1_545  A
C444        H449   1.083       .  S
C445        C446   1.416       .  A
C446        F450   1.358       .  S
C447        C452   1.413       .  A
C447        C456   1.414       .  A
C452        C453   1.406       .  A
C452        F457   1.357       .  S
C453        C454   1.407       .  A
C453        H458   1.083       .  S
C454        C455   1.411       .  A
C455        C456   1.417       .  A
C455        F459   1.357       .  S
C456        H460   1.082       .  S
C461        C462   1.401       .  A
C461        C466   1.387       .  A
C461        H471   1.083       .  S
C462        C467   1.474       .  S
C462        C463   1.407       .  A
C463        C464   1.400       .  A
C463        F468   1.358       .  S
C464        C465   1.405       .  A
C464        H469   1.083       .  S
C465        C466   1.405       .  A
C466        F470   1.358       .  S
C467        C472   1.407       .  A
C467        C476   1.404       .  A
C472        C473   1.390       .  A
C472        F477   1.358       .  S
C473        C474   1.399       .  A
C473        H478   1.084       .  S
C474        C475   1.404       .  A
C475        C476   1.397       .  A
C475        F479   1.356       .  S
C476        H480   1.083       .  S
C481        C482   1.400       .  A
C481        C486   1.391       .  A
C481        H491   1.084       .  S
C482        C487   1.464       .  S
C482        C483   1.396       .  A
C483        C484   1.390       .  A
C483        F488   1.358       .  S
C484        C485   1.413       .  A
C484        H489   1.080       .  S
C485        C486   1.412       .  A
C486        F490   1.356       .  S
C487        C492   1.402       .  A
C487        C496   1.400       .  A
C492        C493   1.389       .  A
C492        F497   1.358       .  S
C493        C494   1.404       .  A
C493        H498   1.083       .  S
C494        C495   1.409       .  A
C495        C496   1.393       .  A
C495        F499   1.358       .  S
C496        H500   1.084       .  S
C501        C502   1.403       .  A
C501        C506   1.397       .  A
C501        H511   1.083       .  S
C502        C507   1.475       .  S
C502        C503   1.406       .  A
C503        C504   1.391       .  A
C503        F508   1.358       .  S
C504        C505   1.403       .  A
C504        H509   1.083       .  S
C505        C506   1.409       .  A
C506        F510   1.358       .  S
C507        C512   1.403       .  A
C507        C516   1.405       .  A
C512        C513   1.393       .  A
C512        F517   1.357       .  S
C513        C514   1.406       .  A
C513        H518   1.083       .  S
C514        C515   1.405       .  A
C515        C516   1.395       .  A
C515        F519   1.356       .  S
C516        H520   1.083       .  S
C521        C522   1.407       .  A
C521        C526   1.402       .  A
C521        H531   1.083   1_655  S
C522        C527   1.490   1_655  S
C522        C523   1.409       .  A
C523        C524   1.401       .  A
C523        F528   1.357   1_554  S
C524        C525   1.402       .  A
C524        H529   1.083       .  S
C525        C526   1.403       .  A
C526        F530   1.357       .  S
C527        C532   1.407   1_454  A
C527        C536   1.405       .  A
C532        C533   1.401   1_655  A
C532        F537   1.357       .  S
C533        C534   1.408       .  A
C533        H538   1.083       .  S
C534        C535   1.408       .  A
C535        C536   1.402   1_556  A
C535        F539   1.353       .  S
C536        H540   1.083       .  S
C541        C542   1.406       .  A
C541        C546   1.396       .  A
C541        H551   1.083       .  S
C542        C547   1.483       .  S
C542        C543   1.407       .  A
C543        C544   1.401       .  A
C543        F548   1.357   1_556  S
C544        C545   1.403       .  A
C544        H549   1.079       .  S
C545        C546   1.403       .  A
C546        F550   1.358       .  S
C547        C552   1.404       .  A
C547        C556   1.406   1_556  A
C552        C553   1.394       .  A
C552        F557   1.358       .  S
C553        C554   1.407       .  A
C553        H558   1.083       .  S
C554        C555   1.410   1_556  A
C555        C556   1.403       .  A
C555        F559   1.357       .  S
C556        H560   1.083       .  S
C561        C562   1.402       .  A
C561        C566   1.392       .  A
C561        H571   1.084       .  S
C562        C567   1.476       .  S
C562        C563   1.407       .  A
C563        C564   1.402       .  A
C563        F568   1.357       .  S
C564        C565   1.404       .  A
C564        H569   1.083       .  S
C565        C566   1.404       .  A
C566        F570   1.358   1_455  S
C567        C572   1.402       .  A
C567        C576   1.405       .  A
C572        C573   1.389       .  A
C572        F577   1.358       .  S
C573        C574   1.405       .  A
C573        H578   1.084       .  S
C574        C575   1.407       .  A
C575        C576   1.406       .  A
C575        F579   1.357       .  S
C576        H580   1.083       .  S
C581        C582   1.403       .  A
C581        C586   1.404       .  A
C581        H591   1.083       .  S
C582        C587   1.474       .  S
C582        C583   1.400       .  A
C583        C584   1.394       .  A
C583        F588   1.358       .  S
C584        C585   1.409       .  A
C584        H589   1.083   1_556  S
C585        C586   1.410       .  A
C586        F590   1.357       .  S
C587        C592   1.398       .  A
C587        C596   1.400       .  A
C592        C593   1.397       .  A
C592        F597   1.358       .  S
C593        C594   1.416       .  A
C593        H598   1.075       .  S
C594        C595   1.413       .  A
C595        C596   1.398       .  A
C595        F599   1.358       .  S
C596        H600   1.083   1_556  S
C601        C602   1.401   1_655  A
C601        C606   1.396       .  A
C601        H611   1.084       .  S
C602        C607   1.471   1_545  S
C602        C603   1.401       .  A
C603        C604   1.396   1_455  A
C603        F608   1.358       .  S
C604        C605   1.408       .  A
C604        H609   1.081       .  S
C605        C606   1.409       .  A
C606        F610   1.357       .  S
C607        C612   1.402       .  A
C607        C616   1.402   1_565  A
C612        C613   1.394       .  A
C612        F617   1.357       .  S
C613        C614   1.404       .  A
C613        H618   1.083       .  S
C614        C615   1.409       .  A
C615        C616   1.398   1_565  A
C615        F619   1.357   1_565  S
C616        H620   1.083       .  S
C621        C622   1.403       .  A
C621        C626   1.399       .  A
C621        H631   1.083       .  S
C622        C627   1.475       .  S
C622        C623   1.402       .  A
C623        C624   1.396   1_655  A
C623        F628   1.357   1_655  S
C624        C625   1.408   1_455  A
C624        H629   1.083       .  S
C625        C626   1.411       .  A
C626        F630   1.358       .  S
C627        C632   1.406       .  A
C627        C636   1.400       .  A
C632        C633   1.399       .  A
C632        F637   1.357       .  S
C633        C634   1.403       .  A
C633        H638   1.083       .  S
C634        C635   1.410       .  A
C635        C636   1.395       .  A
C635        F639   1.358       .  S
C636        H640   1.084       .  S
C641        C642   1.398       .  A
C641        C646   1.399       .  A
C641        H651   1.083       .  S
C642        C647   1.476       .  S
C642        C643   1.405       .  A
C643        C644   1.393       .  A
C643        F648   1.358       .  S
C644        C645   1.407       .  A
C644        H649   1.076       .  S
C645        C646   1.416       .  A
C646        F650   1.358       .  S
C647        C652   1.406       .  A
C647        C656   1.402       .  A
C652        C653   1.402       .  A
C652        F657   1.357       .  S
C653        C654   1.406       .  A
C653        H658   1.083       .  S
C654        C655   1.403       .  A
C655        C656   1.389       .  A
C655        F659   1.358       .  S
C656        H660   1.084       .  S
C661        C662   1.404       .  A
C661        C666   1.395       .  A
C661        H671   1.083       .  S
C662        C667   1.482       .  S
C662        C663   1.410       .  A
C663        C664   1.399       .  A
C663        F668   1.357       .  S
C664        C665   1.399       .  A
C664        H669   1.083       .  S
C665        C666   1.402       .  A
C666        F670   1.357       .  S
C667        C672   1.409       .  A
C667        C676   1.403   1_655  A
C672        C673   1.397       .  A
C672        F677   1.357       .  S
C673        C674   1.402   1_655  A
C673        H678   1.083       .  S
C674        C675   1.409       .  A
C675        C676   1.397       .  A
C675        F679   1.358       .  S
C676        H680   1.083       .  S
C681        C682   1.405       .  A
C681        C686   1.394       .  A
C681        H691   1.083       .  S
C682        C687   1.470       .  S
C682        C683   1.401       .  A
C683        C684   1.390       .  A
C683        F688   1.358       .  S
C684        C685   1.406       .  A
C684        H689   1.083       .  S
C685        C686   1.403       .  A
C686        F690   1.357       .  S
C687        C692   1.406       .  A
C687        C696   1.403       .  A
C692        C693   1.392       .  A
C692        F697   1.358       .  S
C693        C694   1.398       .  A
C693        H698   1.083       .  S
C694        C695   1.401       .  A
C695        C696   1.393       .  A
C695        F699   1.357       .  S
C696        H700   1.083       .  S
C701        C702   1.402       .  A
C701        C706   1.396       .  A
C701        H711   1.083       .  S
C702        C707   1.470       .  S
C702        C703   1.406       .  A
C703        C704   1.390       .  A
C703        F708   1.358       .  S
C704        C705   1.399       .  A
C704        H709   1.084       .  S
C705        C706   1.405       .  A
C706        F710   1.357       .  S
C707        C712   1.403       .  A
C707        C716   1.402       .  A
C712        C713   1.390       .  A
C712        F717   1.358       .  S
C713        C714   1.404       .  A
C713        H718   1.083       .  S
C714        C715   1.410       .  A
C715        C716   1.398       .  A
C715        F719   1.357       .  S
C716        H720   1.083       .  S
C721        C722   1.400       .  A
C721        C726   1.395       .  A
C721        H731   1.083       .  S
C722        C727   1.451       .  S
C722        C723   1.396       .  A
C723        C724   1.386       .  A
C723        F728   1.358       .  S
C724        C725   1.405       .  A
C724        H729   1.084       .  S
C725        C726   1.406       .  A
C726        F730   1.358       .  S
C727        C732   1.399       .  A
C727        C736   1.391       .  A
C732        C733   1.393       .  A
C732        F737   1.358       .  S
C733        C734   1.408       .  A
C733        H738   1.077       .  S
C734        C735   1.415       .  A
C735        C736   1.385       .  A
C735        F739   1.359       .  S
C736        H740   1.084       .  S
C741        C742   1.404       .  A
C741        C746   1.389       .  A
C741        H751   1.083       .  S
C742        C747   1.474       .  S
C742        C743   1.407       .  A
C743        C744   1.398       .  A
C743        F748   1.357       .  S
C744        C745   1.400       .  A
C744        H749   1.083       .  S
C745        C746   1.399       .  A
C746        F750   1.358       .  S
C747        C752   1.402       .  A
C747        C756   1.406       .  A
C752        C753   1.389       .  A
C752        F757   1.358       .  S
C753        C754   1.406       .  A
C753        H758   1.083       .  S
C754        C755   1.405       .  A
C755        C756   1.399       .  A
C755        F759   1.357       .  S
C756        H760   1.083       .  S
