geometry optimzed in LAMMPS
_audit_creation_date              2020-11-30 
_audit_creation_method            'lammps2cif' 
_symmetry_space_group_name_H-M    'P1' 
_symmetry_Int_Tables_number       1 
_symmetry_cell_setting            triclinic 
loop_ 
_symmetry_equiv_pos_as_xyz 
  x,y,z 
_cell_length_a                    29.7352156 
_cell_length_b                    28.796514629416137 
_cell_length_c                    25.369922678708868 
_cell_angle_alpha                 89.8817417491961 
_cell_angle_beta                  89.01183804152731 
_cell_angle_gamma                 120.6092652359885 
loop_ 
_atom_site_label 
_atom_site_type_symbol 
_atom_site_fract_x 
_atom_site_fract_y 
_atom_site_fract_z 
_atom_site_charge 
C1          C  0.41447121  0.32905426  0.99376722    -0.03400
C2          C  0.98740311  0.36532889  0.00504559    -0.03400
C3          C  0.02073754  0.44093249  0.00178730    -0.03400
C4          C  0.98366196  0.97865557  0.49808700    -0.03400
C5          C  0.40931641  0.44052499  0.99776888    -0.03400
C6          C  0.37803764  0.36597096  0.00154534    -0.03400
O7          O  0.18917907  0.31131210  0.32278688    -0.82700
C8          C  0.07203338  0.14540413  0.17419179     0.96700
O9          O  0.11110314  0.15310038  0.20034491    -0.71800
O10         O  0.19797219  0.24804425  0.18913712    -0.75400
Al11       Al  0.15794095  0.20810519  0.24873044     1.49000
C12         C  0.22729829  0.29870908  0.18634237     0.91900
O13         O  0.13415632  0.32923344  0.19523973    -0.81600
O14         O  0.04826962  0.23806293  0.31487991    -0.75200
Al15       Al  0.16026174  0.31631361  0.25841808     1.90100
O16         O  0.05224231  0.26502300  0.20819897    -0.74300
O17         O  0.04353733  0.14946912  0.29112186    -0.74100
O18         O  0.05042564  0.17274054  0.18423034    -0.79800
O19         O  0.12204815  0.16533116  0.30887677    -0.78000
O20         O  0.12404774  0.24441904  0.25141528    -1.14100
O21         O  0.21216310  0.25380434  0.29668808    -0.73300
C22         C  0.21473599  0.28801799  0.32953451     0.97400
C23         C  0.08628101  0.30845863  0.18516218     0.93800
Al24       Al  0.05448475  0.20945825  0.24937989     1.55600
O25         O  0.22088108  0.32879191  0.21780903    -0.77900
C26         C  0.07367567  0.14103330  0.31860392     0.98000
C27         C  0.07182048  0.28652811  0.32874802     0.92900
O28         O  0.10922398  0.32141567  0.30068240    -0.83200
O29         O  0.35621522  0.16232203  0.19553771    -0.82700
C30         C  0.19393818  0.03426645  0.32679424     0.96700
O31         O  0.21842375  0.08344338  0.31333026    -0.71800
O32         O  0.29859066  0.17286277  0.27671155    -0.75400
Al33       Al  0.24676160  0.10887359  0.24458125     1.49000
C34         C  0.33563067  0.18083563  0.30555725     0.91900
O35         O  0.35788421  0.06301670  0.29280187    -0.81600
O36         O  0.29161544  0.99379548  0.19973617    -0.75200
Al37       Al  0.35087303  0.10962227  0.24452192     1.90100
O38         O  0.27873649  0.99574396  0.30684703    -0.74300
O39         O  0.20373039  0.99492510  0.18764906    -0.74100
O40         O  0.19469121  0.99857070  0.29782862    -0.79800
O41         O  0.18366277  0.05472275  0.21180319    -0.78000
O42         O  0.28111920  0.07296753  0.24543067    -1.14100
O43         O  0.27452873  0.13709420  0.17657798    -0.73300
C44         C  0.32302161  0.16341702  0.16580076     0.97400
C45         C  0.32613270  0.02072423  0.31808035     0.93800
Al46       Al  0.24512151  0.00150736  0.24767892     1.55600
O47         O  0.35448027  0.15055329  0.30356591    -0.77900
C48         C  0.17526817  0.01541921  0.18342639     0.98000
C49         C  0.33261347  0.02606526  0.17345702     0.92900
O50         O  0.35794834  0.07493264  0.18510563    -0.83200
C51         C  0.26762109  0.32185935  0.14389555    -0.07000
C52         C  0.25165079  0.30253355  0.09342861    -0.18200
C53         C  0.28660311  0.29511475  0.06252063     0.10200
C54         C  0.34098861  0.33968408  0.05780694    -0.07000
C55         C  0.35674271  0.36428123  0.10869251    -0.18200
C56         C  0.32177699  0.35348889  0.15206615     0.10200
S57         S  0.26419690  0.22608350  0.58286522    -0.33200
S58         S  0.34793997  0.38724618  0.21335101    -0.33200
H59         H  0.31210263  0.40498927  0.21988657     0.28200
H60         H  0.26787280  0.23233453  0.63784554     0.28200
H61         H  0.20999879  0.27665570  0.08700191     0.18800
H62         H  0.39344648  0.39867390  0.11276921     0.18800
C63         C  0.25221902  0.30508129  0.37294951    -0.07000
C64         C  0.30407952  0.32765833  0.35911463    -0.18200
C65         C  0.34371370  0.35016509  0.39631995     0.10200
C66         C  0.33402697  0.34727505  0.45328078    -0.07000
C67         C  0.27987056  0.33030857  0.46300956    -0.18200
C68         C  0.23962211  0.30645130  0.42591536     0.10200
S69         S  0.40382192  0.38112148  0.36250314    -0.33200
S70         S  0.17281130  0.27703302  0.44965148    -0.33200
H71         H  0.14964846  0.23999246  0.40861216     0.29400
H72         H  0.42589090  0.40000600  0.41105597     0.28200
H73         H  0.31395143  0.32914619  0.31748035     0.18800
H74         H  0.26623245  0.33741818  0.49890992     0.18800
C75         C  0.37939121  0.45632606  0.44869732    -0.07000
C76         C  0.40657531  0.98189125  0.40157516    -0.18200
C77         C  0.39352747  0.00743150  0.36322429     0.10200
C78         C  0.34400134  0.99927735  0.36125250    -0.07000
C79         C  0.30939865  0.46665014  0.39986183    -0.18200
C80         C  0.32495028  0.44852091  0.44432264     0.10200
S81         S  0.44022424  0.04482582  0.31305800    -0.33200
S82         S  0.27002917  0.42954274  0.48987164    -0.33200
H83         H  0.22976157  0.39499358  0.45649207     0.28200
H84         H  0.44613597  0.09393843  0.33067491     0.28200
H85         H  0.43481449  0.97591172  0.38730292     0.18800
H86         H  0.27026073  0.46021681  0.39697212     0.18800
C87         C  0.38723861  0.46672480  0.04202496    -0.07000
C88         C  0.33815760  0.43668222  0.06780714    -0.18200
C89         C  0.31843681  0.45546193  0.10752601     0.10200
C90         C  0.35050772  0.00652361  0.12782723    -0.07000
C91         C  0.39648961  0.04039119  0.09828657    -0.18200
C92         C  0.40305086  0.02308604  0.04786847     0.10200
S93         S  0.24962066  0.41705021  0.12266886    -0.33200
S94         S  0.37654374  0.05370278  0.00469340    -0.33200
H95         H  0.40351744  0.05604066  0.95843780     0.28200
H96         H  0.24195191  0.46021704  0.11048498     0.28200
H97         H  0.31076166  0.39864779  0.05382718     0.18800
H98         H  0.41813379  0.08309463  0.10700418     0.18800
C99         C  0.05161441  0.10334984  0.13175274    -0.07000
C100        C  0.08072248  0.11306034  0.08567016    -0.18200
C101        C  0.06303219  0.07745947  0.04240517     0.10200
C102        C  0.01156121  0.02498849  0.04469481    -0.07000
C103        C  0.98734699  0.01613867  0.09482700    -0.18200
C104        C  0.00498591  0.05332579  0.13625715     0.10200
S105        S  0.11090812  0.11212048  0.98772090    -0.33200
S106        S  0.46460952  0.03274833  0.19425907    -0.33200
H107        H  0.00466293  0.06685698  0.22752525     0.28200
H108        H  0.10199607  0.06865886  0.45676651     0.28200
H109        H  0.11762636  0.15098308  0.08258068     0.18800
H110        H  0.45220610  0.97964374  0.10305662     0.18800
C111        C  0.05155205  0.10229336  0.36296412    -0.07000
C112        C  0.03049461  0.11447432  0.40608031    -0.18200
C113        C  0.00649913  0.07839536  0.44938528     0.10200
C114        C  0.00354539  0.02511009  0.45072590    -0.07000
C115        C  0.01992123  0.01492692  0.40251302    -0.18200
C116        C  0.04293715  0.05050965  0.35938676     0.10200
S117        S  0.99759546  0.11533182  0.00257954    -0.33200
S118        S  0.04717729  0.02454610  0.29594047    -0.33200
H119        H  0.09730635  0.06784258  0.28277966     0.28200
H120        H  0.97939091  0.14225552  0.97094264     0.28200
H121        H  0.03550485  0.15452273  0.40662644     0.18800
H122        H  0.00133965  0.97424289  0.39469292     0.18800
C123        C  0.13501045  0.99744082  0.14205166    -0.07000
C124        C  0.08275169  0.45912413  0.15212943    -0.18200
C125        C  0.04400022  0.44568865  0.11320874     0.10200
C126        C  0.05650375  0.46422792  0.05831701    -0.07000
C127        C  0.10616250  0.01274407  0.05915471    -0.18200
C128        C  0.14567034  0.02657583  0.09543296     0.10200
S129        S  0.98135760  0.41447839  0.14212423    -0.33200
S130        S  0.20927873  0.08313503  0.07911743    -0.33200
H131        H  0.23691567  0.05936666  0.09881299     0.28200
H132        H  0.96528146  0.41264413  0.09053180     0.28200
H133        H  0.07145208  0.44194681  0.19159092     0.18800
H134        H  0.11938145  0.03992910  0.02784402     0.18800
C135        C  0.15616044  0.01597324  0.37127533    -0.07000
C136        C  0.10632777  0.98067615  0.35772593    -0.18200
C137        C  0.06596937  0.45336291  0.39483175     0.10200
C138        C  0.06937259  0.46387752  0.45220139    -0.07000
C139        C  0.12561515  0.49021285  0.46156221    -0.18200
C140        C  0.16727002  0.01918120  0.42459705     0.10200
S141        S  0.01528067  0.90376328  0.35817153    -0.33200
S142        S  0.23342924  0.04918083  0.44715965    -0.33200
H143        H  0.25823774  0.08362972  0.40360054     0.28200
H144        H  0.99047044  0.39458556  0.40636893     0.28200
H145        H  0.09981078  0.97171034  0.31584201     0.18800
H146        H  0.13983063  0.48130194  0.49646076     0.18800
C147        C  0.01541889  0.34001073  0.46409016    -0.07000
C148        C  0.06823916  0.36765485  0.44449539    -0.18200
C149        C  0.08742822  0.35284802  0.40109686     0.10200
C150        C  0.05549071  0.30306767  0.37768288    -0.07000
C151        C  0.01066339  0.26690946  0.40681631    -0.18200
C152        C  0.99808221  0.28353021  0.45472623     0.10200
S153        S  0.15513561  0.39729361  0.38268087    -0.33200
S154        S  0.50289205  0.24430471  0.50473162    -0.33200
H155        H  0.46469309  0.25373599  0.52151189     0.28200
H156        H  0.16677148  0.35649990  0.38949613     0.28200
H157        H  0.09879847  0.40014914  0.46234428     0.18800
H158        H  0.99056729  0.22439232  0.39723798     0.18800
C159        C  0.06861861  0.33415361  0.14594068    -0.07000
C160        C  0.01954127  0.32932448  0.15333218    -0.18200
C161        C  0.98820767  0.31533398  0.10811177     0.10200
C162        C  0.01098603  0.34792367  0.05884231    -0.07000
C163        C  0.06668578  0.36901189  0.06027391    -0.18200
C164        C  0.09095313  0.35134871  0.09541082     0.10200
S165        S  0.46548144  0.24300752  0.12218603    -0.33200
S166        S  0.14102395  0.34079495  0.06802711    -0.33200
H167        H  0.12807024  0.29451857  0.09829096     0.28200
H168        H  0.43108137  0.20834355  0.08593979     0.28200
H169        H  0.00106447  0.31777450  0.19231212     0.18800
H170        H  0.09377822  0.40310099  0.03818061     0.18800
C171        C  0.39109228  0.29219961  0.43856794    -0.07000
C172        C  0.42248380  0.29267765  0.39543454    -0.18200
C173        C  0.40675348  0.26140182  0.34980679     0.10200
C174        C  0.35468050  0.22397129  0.34391726    -0.07000
C175        C  0.31964331  0.22237904  0.38041912    -0.18200
C176        C  0.33592412  0.25158001  0.42744483     0.10200
S177        S  0.45567819  0.27337645  0.29947930    -0.33200
S178        S  0.27994903  0.22511647  0.46905497    -0.33200
H179        H  0.26368670  0.17016572  0.96267581     0.28200
H180        H  0.42338454  0.24065989  0.25957328     0.28200
H181        H  0.46125905  0.31569655  0.39430618     0.18800
H182        H  0.27853993  0.19345499  0.37407430     0.18800
C183        C  0.39069668  0.27806251  0.03525683    -0.07000
C184        C  0.39210637  0.29104543  0.08804804    -0.18200
C185        C  0.36921505  0.25572355  0.13030054     0.10200
C186        C  0.34272542  0.20072229  0.12118735    -0.07000
C187        C  0.34106530  0.18265912  0.06984582    -0.18200
C188        C  0.36736048  0.21948693  0.02736794     0.10200
S189        S  0.37690446  0.28363200  0.19533064    -0.33200
S190        S  0.37799405  0.18677915  0.47089360    -0.33200
H191        H  0.33551743  0.13443595  0.47979891     0.28200
H192        H  0.32427331  0.24991522  0.21051837     0.28200
H193        H  0.41455471  0.33141781  0.09699356     0.18800
H194        H  0.32434319  0.13974038  0.06450660     0.18800
C195        C  0.41447118  0.32905293  0.49376675    -0.03400
C196        C  0.98740326  0.36532817  0.50504560    -0.03400
C197        C  0.02073804  0.44093193  0.50178714    -0.03400
C198        C  0.98366106  0.97865710  0.99808782    -0.03400
C199        C  0.40931652  0.44052347  0.49776779    -0.03400
C200        C  0.37803737  0.36596929  0.50154422    -0.03400
O201        O  0.18918266  0.31131421  0.82278567    -0.82700
C202        C  0.07203477  0.14540363  0.67419149     0.96700
O203        O  0.11110282  0.15309846  0.70034687    -0.71800
O204        O  0.19797325  0.24804148  0.68913876    -0.75400
Al205      Al  0.15794091  0.20810405  0.74873221     1.49000
C206        C  0.22729938  0.29870614  0.68634224     0.91900
O207        O  0.13416021  0.32923552  0.69523818    -0.81600
O208        O  0.04827101  0.23806611  0.81487742    -0.75200
Al209      Al  0.16026486  0.31631483  0.75841697     1.90100
O210        O  0.05224611  0.26502540  0.70819642    -0.74300
O211        O  0.04353621  0.14946969  0.79111965    -0.74100
O212        O  0.05042871  0.17274228  0.68422772    -0.79800
O213        O  0.12204613  0.16533127  0.80887876    -0.78000
O214        O  0.12404952  0.24441985  0.75141504    -1.14100
O215        O  0.21216319  0.25380298  0.79668984    -0.73300
C216        C  0.21473808  0.28801870  0.82953457     0.97400
C217        C  0.08628517  0.30846088  0.68515992     0.93800
Al218      Al  0.05448668  0.20946030  0.74937764     1.55600
O219        O  0.22088277  0.32879042  0.71780747    -0.77900
C220        C  0.07367312  0.14103309  0.81860334     0.98000
C221        C  0.07182281  0.28653107  0.82874671     0.92900
O222        O  0.10922788  0.32141838  0.80068223    -0.83200
O223        O  0.35621756  0.16232037  0.69553837    -0.82700
C224        C  0.19394098  0.03426585  0.82679710     0.96700
O225        O  0.21842781  0.08344293  0.81333347    -0.71800
O226        O  0.29859446  0.17286198  0.77671305    -0.75400
Al227      Al  0.24676429  0.10887321  0.74458344     1.49000
C228        C  0.33563423  0.18083409  0.80555885     0.91900
O229        O  0.35788490  0.06301425  0.79280147    -0.81600
O230        O  0.29161518  0.99379369  0.69973488    -0.75200
Al231      Al  0.35087490  0.10962024  0.74452212     1.90100
O232        O  0.27873690  0.99574183  0.80684640    -0.74300
O233        O  0.20373091  0.99492492  0.68765044    -0.74100
O234        O  0.19469257  0.99856985  0.79783051    -0.79800
O235        O  0.18366402  0.05472267  0.71180618    -0.78000
O236        O  0.28112101  0.07296649  0.74543158    -1.14100
O237        O  0.27453089  0.13709378  0.67657957    -0.73300
C238        C  0.32302390  0.16341614  0.66580201     0.97400
C239        C  0.32613278  0.02072242  0.81808034     0.93800
Al240      Al  0.24512222  0.00150619  0.74767924     1.55600
O241        O  0.35448378  0.15055175  0.80356682    -0.77900
C242        C  0.17526854  0.01541888  0.68342908     0.98000
C243        C  0.33261342  0.02606309  0.67345571     0.92900
O244        O  0.35794901  0.07493019  0.68510504    -0.83200
C245        C  0.26762171  0.32185500  0.64389514    -0.07000
C246        C  0.25165142  0.30252928  0.59342831    -0.18200
C247        C  0.28660376  0.29511109  0.56251992     0.10200
C248        C  0.34098874  0.33968150  0.55780577    -0.07000
C249        C  0.35674289  0.36427855  0.60869126    -0.18200
C250        C  0.32177742  0.35348540  0.65206520     0.10200
S251        S  0.26419514  0.22608693  0.08286511    -0.33200
S252        S  0.34794055  0.38724261  0.71334998    -0.33200
H253        H  0.31210411  0.40498697  0.71988438     0.28200
H254        H  0.26787110  0.23233759  0.13784544     0.28200
H255        H  0.20999896  0.27665067  0.58700188     0.18800
H256        H  0.39344650  0.39867195  0.61276770     0.18800
C257        C  0.25222066  0.30508176  0.87294992    -0.07000
C258        C  0.30408104  0.32765691  0.85911588    -0.18200
C259        C  0.34371508  0.35016546  0.89632111     0.10200
C260        C  0.33402799  0.34727641  0.95328155    -0.07000
C261        C  0.27987197  0.33031121  0.96300937    -0.18200
C262        C  0.23962370  0.30645396  0.92591517     0.10200
S263        S  0.40382349  0.38112470  0.86250473    -0.33200
S264        S  0.17281305  0.27703886  0.94965077    -0.33200
H265        H  0.14964888  0.23999897  0.90861123     0.29400
H266        H  0.42589250  0.40000916  0.91105763     0.28200
H267        H  0.31395321  0.32914341  0.81748141     0.18800
H268        H  0.26623417  0.33742251  0.99890933     0.18800
C269        C  0.37939101  0.45632707  0.94869837    -0.07000
C270        C  0.40657336  0.98189100  0.90157834    -0.18200
C271        C  0.39352545  0.00742861  0.86322511     0.10200
C272        C  0.34400057  0.99927708  0.86125389    -0.07000
C273        C  0.30939789  0.46664828  0.89986113    -0.18200
C274        C  0.32494984  0.44852112  0.94432298     0.10200
S275        S  0.44022007  0.04481431  0.81305446    -0.33200
S276        S  0.27002895  0.42954558  0.98987173    -0.33200
H277        H  0.22976070  0.39499425  0.95649401     0.28200
H278        H  0.44613713  0.09393061  0.83066630     0.28200
H279        H  0.43481259  0.97591107  0.88730847     0.18800
H280        H  0.27025972  0.46021394  0.89697028     0.18800
C281        C  0.38723897  0.46672286  0.54202428    -0.07000
C282        C  0.33815831  0.43668027  0.56780711    -0.18200
C283        C  0.31843788  0.45545960  0.60752675     0.10200
C284        C  0.35050737  0.00652156  0.62782501    -0.07000
C285        C  0.39648796  0.04038988  0.59828275    -0.18200
C286        C  0.40305010  0.02308405  0.54786511     0.10200
S287        S  0.24962218  0.41704593  0.62267201    -0.33200
S288        S  0.37654542  0.05370079  0.50468709    -0.33200
H289        H  0.40352337  0.05604076  0.45843416     0.28200
H290        H  0.24195076  0.46021072  0.61048686     0.28200
H291        H  0.31076189  0.39864517  0.55382739     0.18800
H292        H  0.41813067  0.08309355  0.60699925     0.18800
C293        C  0.05161620  0.10334863  0.63175242    -0.07000
C294        C  0.08072593  0.11305784  0.58567085    -0.18200
C295        C  0.06303479  0.07745649  0.54240578     0.10200
C296        C  0.01156222  0.02498653  0.54469452    -0.07000
C297        C  0.98734655  0.01613782  0.59482578    -0.18200
C298        C  0.00498628  0.05332513  0.63625589     0.10200
S299        S  0.11091138  0.11211682  0.48772200    -0.33200
S300        S  0.46461063  0.03274713  0.69425783    -0.33200
H301        H  0.00466341  0.06685652  0.72752426     0.28200
H302        H  0.10199588  0.06866241  0.95676690     0.28200
H303        H  0.11763052  0.15097859  0.58258235     0.18800
H304        H  0.45220550  0.97964339  0.60305522     0.18800
C305        C  0.05154758  0.10229275  0.86296293    -0.07000
C306        C  0.03048839  0.11447347  0.90607789    -0.18200
C307        C  0.00649514  0.07839534  0.94938399     0.10200
C308        C  0.00354413  0.02511126  0.95072641    -0.07000
C309        C  0.01992087  0.01492805  0.90251436    -0.18200
C310        C  0.04293540  0.05050977  0.85938729     0.10200
S311        S  0.99759842  0.11533058  0.50258164    -0.33200
S312        S  0.04717605  0.02454486  0.79594186    -0.33200
H313        H  0.09730405  0.06784207  0.78277910     0.28200
H314        H  0.97939651  0.14225624  0.47094407     0.28200
H315        H  0.03549616  0.15452039  0.90662248     0.18800
H316        H  0.00133981  0.97424379  0.89469553     0.18800
C317        C  0.13501098  0.99744095  0.64205405    -0.07000
C318        C  0.08275105  0.45912720  0.65213158    -0.18200
C319        C  0.04400073  0.44569062  0.61320933     0.10200
C320        C  0.05650522  0.46422818  0.55831693    -0.07000
C321        C  0.10616625  0.01274166  0.55915402    -0.18200
C322        C  0.14567365  0.02657210  0.59543260     0.10200
S323        S  0.98135759  0.41447887  0.64212322    -0.33200
S324        S  0.20928463  0.08312624  0.57911498    -0.33200
H325        H  0.23691835  0.05935627  0.59881526     0.28200
H326        H  0.96528224  0.41264404  0.59053032     0.28200
H327        H  0.07145015  0.44195092  0.69159362     0.18800
H328        H  0.11938631  0.03992684  0.52784417     0.18800
C329        C  0.15616282  0.01597305  0.87127836    -0.07000
C330        C  0.10632991  0.98067836  0.85772807    -0.18200
C331        C  0.06597076  0.45336371  0.89483220     0.10200
C332        C  0.06937309  0.46387835  0.95220190    -0.07000
C333        C  0.12561568  0.49021386  0.96156319    -0.18200
C334        C  0.16727103  0.01917924  0.92460044     0.10200
S335        S  0.01528220  0.90376612  0.85817170    -0.33200
S336        S  0.23342915  0.04917210  0.94716433    -0.33200
H337        H  0.25824074  0.08362113  0.90360597     0.28200
H338        H  0.99047171  0.39458819  0.90636876     0.28200
H339        H  0.09981329  0.97171384  0.81584386     0.18800
H340        H  0.13983055  0.48130383  0.99646324     0.18800
C341        C  0.01541937  0.34001228  0.96408963    -0.07000
C342        C  0.06824032  0.36765618  0.94449639    -0.18200
C343        C  0.08743025  0.35284951  0.90109807     0.10200
C344        C  0.05549242  0.30307049  0.87768190    -0.07000
C345        C  0.01066390  0.26691265  0.90681396    -0.18200
C346        C  0.99808310  0.28353221  0.95472485     0.10200
S347        S  0.15513873  0.39729340  0.88268548    -0.33200
S348        S  0.50289756  0.24430846  0.00472893    -0.33200
H349        H  0.46469642  0.25373616  0.02151001     0.28200
H350        H  0.16677142  0.35649689  0.88949444     0.28200
H351        H  0.09879937  0.40015014  0.96234643     0.18800
H352        H  0.99056657  0.22439548  0.89723411     0.18800
C353        C  0.06862285  0.33415626  0.64593900    -0.07000
C354        C  0.01954590  0.32932775  0.65333217    -0.18200
C355        C  0.98821056  0.31533578  0.60811295     0.10200
C356        C  0.01098725  0.34792400  0.55884231    -0.07000
C357        C  0.06668702  0.36901280  0.56027283    -0.18200
C358        C  0.09095580  0.35135032  0.59540844     0.10200
S359        S  0.46548317  0.24300925  0.62218900    -0.33200
S360        S  0.14102761  0.34079884  0.56802326    -0.33200
H361        H  0.12807849  0.29452527  0.59828961     0.28200
H362        H  0.43108334  0.20834400  0.58594333     0.28200
H363        H  0.00107055  0.31777883  0.69231271     0.18800
H364        H  0.09377852  0.40310163  0.53817855     0.18800
C365        C  0.39109227  0.29220054  0.93856871    -0.07000
C366        C  0.42248402  0.29267986  0.89543516    -0.18200
C367        C  0.40675488  0.26140332  0.84980766     0.10200
C368        C  0.35468302  0.22396874  0.84392003    -0.07000
C369        C  0.31964546  0.22237471  0.88042240    -0.18200
C370        C  0.33592486  0.25157913  0.92744632     0.10200
S371        S  0.45567989  0.27338417  0.79947815    -0.33200
S372        S  0.27994905  0.22511864  0.96905508    -0.33200
H373        H  0.26368538  0.17016392  0.46267017     0.28200
H374        H  0.42338833  0.24065707  0.75957620     0.28200
H375        H  0.46125880  0.31570010  0.89430693     0.18800
H376        H  0.27854220  0.19344791  0.87407852     0.18800
C377        C  0.39069698  0.27806130  0.53525681    -0.07000
C378        C  0.39210803  0.29104446  0.58804832    -0.18200
C379        C  0.36921719  0.25572287  0.63030120     0.10200
C380        C  0.34272786  0.20072142  0.62118829    -0.07000
C381        C  0.34106764  0.18265802  0.56984680    -0.18200
C382        C  0.36736062  0.21948535  0.52736796     0.10200
S383        S  0.37690744  0.28363083  0.69533150    -0.33200
S384        S  0.37799815  0.18678153  0.97089597    -0.33200
H385        H  0.33551296  0.13444197  0.97979411     0.28200
H386        H  0.32427617  0.24991491  0.71051945     0.28200
H387        H  0.41455627  0.33141654  0.59699365     0.18800
H388        H  0.32434622  0.13973932  0.56450821     0.18800
C389        C  0.41446946  0.82905903  0.99376492    -0.03400
C390        C  0.98740129  0.86533290  0.00504504    -0.03400
C391        C  0.02073765  0.94093710  0.00178223    -0.03400
C392        C  0.98365895  0.47864936  0.49809327    -0.03400
C393        C  0.40931922  0.94053283  0.99776387    -0.03400
C394        C  0.37803774  0.86597794  0.00154338    -0.03400
O395        O  0.18917199  0.81131225  0.32278985    -0.82700
C396        C  0.07202894  0.64540262  0.17419541     0.96700
O397        O  0.11109936  0.65310024  0.20034818    -0.71800
O398        O  0.19796805  0.74804509  0.18913879    -0.75400
Al399      Al  0.15793670  0.70810541  0.24873373     1.49000
C400        C  0.22729509  0.79870986  0.18634423     0.91900
O401        O  0.13415038  0.82923188  0.19524094    -0.81600
O402        O  0.04826696  0.73806395  0.31488424    -0.75200
Al403      Al  0.16025636  0.81631326  0.25841969     1.90100
O404        O  0.05223634  0.76502188  0.20820263    -0.74300
O405        O  0.04353258  0.64946792  0.29112836    -0.74100
O406        O  0.05041935  0.67273722  0.18423517    -0.79800
O407        O  0.12204368  0.66532973  0.30888125    -0.78000
O408        O  0.12404275  0.74441837  0.25141821    -1.14100
O409        O  0.21215849  0.75380617  0.29669194    -0.73300
C410        C  0.21472998  0.78801951  0.32953824     0.97400
C411        C  0.08627450  0.80845791  0.18516558     0.93800
Al412      Al  0.05447980  0.70945713  0.24938453     1.55600
O413        O  0.22087771  0.82879221  0.21781169    -0.77900
C414        C  0.07367107  0.64103166  0.31860985     0.98000
C415        C  0.07181719  0.78652995  0.32874984     0.92900
O416        O  0.10921855  0.82141657  0.30068194    -0.83200
O417        O  0.35621553  0.66231590  0.19553037    -0.82700
C418        C  0.19394208  0.53426767  0.32680485     0.96700
O419        O  0.21842393  0.58344309  0.31333577    -0.71800
O420        O  0.29858870  0.67286058  0.27671493    -0.75400
Al421      Al  0.24676226  0.60887187  0.24458578     1.49000
C422        C  0.33563388  0.68084001  0.30555529     0.91900
O423        O  0.35789182  0.56302561  0.29281204    -0.81600
O424        O  0.29161241  0.49378847  0.19974445    -0.75200
Al425      Al  0.35087655  0.60962281  0.24452314     1.90100
O426        O  0.27874566  0.49574913  0.30685667    -0.74300
O427        O  0.20372486  0.49491341  0.18766627    -0.74100
O428        O  0.19469890  0.49857098  0.29784466    -0.79800
O429        O  0.18366472  0.55471999  0.21180739    -0.78000
O430        O  0.28112156  0.57296680  0.24543648    -1.14100
O431        O  0.27452852  0.63709459  0.17658185    -0.73300
C432        C  0.32302020  0.66341450  0.16579856     0.97400
C433        C  0.32614111  0.52073403  0.31809236     0.93800
Al434      Al  0.24512431  0.50150524  0.24769145     1.55600
O435        O  0.35448966  0.65056357  0.30356061    -0.77900
C436        C  0.17526580  0.51541046  0.18343780     0.98000
C437        C  0.33261001  0.52605643  0.17346405     0.92900
O438        O  0.35794800  0.57492377  0.18511263    -0.83200
C439        C  0.26761923  0.82186087  0.14389707    -0.07000
C440        C  0.25164981  0.80253884  0.09342890    -0.18200
C441        C  0.28660232  0.79512210  0.06251851     0.10200
C442        C  0.34098827  0.83969102  0.05780558    -0.07000
C443        C  0.35674159  0.86428630  0.10869254    -0.18200
C444        C  0.32177535  0.85349177  0.15206684     0.10200
S445        S  0.26419686  0.72608826  0.58285555    -0.33200
S446        S  0.34793839  0.88724475  0.21335349    -0.33200
H447        H  0.31210062  0.90498682  0.21989250     0.28200
H448        H  0.26786114  0.73233045  0.63783725     0.28200
H449        H  0.20999785  0.77666072  0.08700215     0.18800
H450        H  0.39344630  0.89867816  0.11277115     0.18800
C451        C  0.25221377  0.80508552  0.37295302    -0.07000
C452        C  0.30407346  0.82765778  0.35911660    -0.18200
C453        C  0.34371002  0.85016855  0.39631903     0.10200
C454        C  0.33402602  0.84728145  0.45327996    -0.07000
C455        C  0.27987112  0.83032123  0.46301064    -0.18200
C456        C  0.23962030  0.80646523  0.42591848     0.10200
S457        S  0.40381721  0.88112622  0.36249913    -0.33200
S458        S  0.17281190  0.77706277  0.44965850    -0.33200
H459        H  0.14963435  0.74003443  0.40861273     0.29400
H460        H  0.42588926  0.90001374  0.41105007     0.28200
H461        H  0.31394367  0.82914136  0.31748171     0.18800
H462        H  0.26623669  0.83743577  0.49891130     0.18800
C463        C  0.37939491  0.95633236  0.44868957    -0.07000
C464        C  0.40657198  0.48188346  0.40158336    -0.18200
C465        C  0.39352862  0.50742834  0.36323358     0.10200
C466        C  0.34400835  0.49928989  0.36126800    -0.07000
C467        C  0.30939254  0.96663110  0.39984396    -0.18200
C468        C  0.32495204  0.94852177  0.44431358     0.10200
S469        S  0.44022031  0.54480472  0.31305867    -0.33200
S470        S  0.27004286  0.92957098  0.48987181    -0.33200
H471        H  0.22976108  0.89501227  0.45651018     0.28200
H472        H  0.44614136  0.59392473  0.33066336     0.28200
H473        H  0.43480841  0.47589955  0.38731219     0.18800
H474        H  0.27025040  0.96018505  0.39694976     0.18800
C475        C  0.38724474  0.96673441  0.04201999    -0.07000
C476        C  0.33816572  0.93669161  0.06780407    -0.18200
C477        C  0.31844571  0.95547041  0.10752362     0.10200
C478        C  0.35050074  0.50651386  0.12783190    -0.07000
C479        C  0.39648276  0.54038124  0.09829153    -0.18200
C480        C  0.40304433  0.52307627  0.04787360     0.10200
S481        S  0.24963031  0.91705536  0.12266792    -0.33200
S482        S  0.37653512  0.55369210  0.00470039    -0.33200
H483        H  0.40351288  0.55603526  0.95844601     0.28200
H484        H  0.24195741  0.96021809  0.11047730     0.28200
H485        H  0.31076839  0.89865916  0.05382234     0.18800
H486        H  0.41812815  0.58308400  0.10701025     0.18800
C487        C  0.05161027  0.60334711  0.13175673    -0.07000
C488        C  0.08072044  0.61305323  0.08567641    -0.18200
C489        C  0.06302960  0.57745084  0.04241240     0.10200
C490        C  0.01155800  0.52498088  0.04470205    -0.07000
C491        C  0.98734188  0.51613450  0.09483323    -0.18200
C492        C  0.00497996  0.55332517  0.13626068     0.10200
S493        S  0.11090443  0.61211002  0.98772749    -0.33200
S494        S  0.46460085  0.53275782  0.19425924    -0.33200
H495        H  0.00466212  0.56684805  0.22752797     0.28200
H496        H  0.10198991  0.56864689  0.45677463     0.28200
H497        H  0.11762603  0.65097423  0.08258730     0.18800
H498        H  0.45220037  0.47964067  0.10306411     0.18800
C499        C  0.05154720  0.60229012  0.36297038    -0.07000
C500        C  0.03048772  0.61446840  0.40608712    -0.18200
C501        C  0.00649344  0.57838865  0.44939218     0.10200
C502        C  0.00354114  0.52510401  0.45073194    -0.07000
C503        C  0.01991761  0.51492244  0.40251829    -0.18200
C504        C  0.04293478  0.55050700  0.35939302     0.10200
S505        S  0.99759005  0.61532291  0.00259036    -0.33200
S506        S  0.04718087  0.52454633  0.29594707    -0.33200
H507        H  0.09731053  0.56784411  0.28279061     0.28200
H508        H  0.97938907  0.64225173  0.97095612     0.28200
H509        H  0.03549592  0.65451619  0.40663411     0.18800
H510        H  0.00133840  0.47423873  0.39469729     0.18800
C511        C  0.13500883  0.49743051  0.14206137    -0.07000
C512        C  0.08275356  0.95913518  0.15212181    -0.18200
C513        C  0.04400168  0.94569747  0.11320177     0.10200
C514        C  0.05650473  0.96423472  0.05830983    -0.07000
C515        C  0.10616187  0.51273648  0.05916434    -0.18200
C516        C  0.14566920  0.52656655  0.09544316     0.10200
S517        S  0.98135833  0.91448025  0.14211611    -0.33200
S518        S  0.20927703  0.58312748  0.07912949    -0.33200
H519        H  0.23691620  0.55936391  0.09883072     0.28200
H520        H  0.96527967  0.91264327  0.09052407     0.28200
H521        H  0.07145487  0.94195763  0.19158328     0.18800
H522        H  0.11938146  0.53992324  0.02785523     0.18800
C523        C  0.15616290  0.51597534  0.37128462    -0.07000
C524        C  0.10633097  0.48067846  0.35773342    -0.18200
C525        C  0.06596738  0.95336227  0.39482596     0.10200
C526        C  0.06937251  0.96387920  0.45219498    -0.07000
C527        C  0.12561535  0.99021413  0.46155403    -0.18200
C528        C  0.16727078  0.51918098  0.42460639     0.10200
S529        S  0.01528587  0.40376244  0.35817468    -0.33200
S530        S  0.23342959  0.54917845  0.44716923    -0.33200
H531        H  0.25823734  0.58363503  0.40361465     0.28200
H532        H  0.99046587  0.89458747  0.40636650     0.28200
H533        H  0.09981574  0.47171410  0.31584889     0.18800
H534        H  0.13983150  0.98130484  0.49645338     0.18800
C535        C  0.01541854  0.84001434  0.46409133    -0.07000
C536        C  0.06823896  0.86765803  0.44449723    -0.18200
C537        C  0.08742664  0.85285263  0.40109636     0.10200
C538        C  0.05548923  0.80307114  0.37768440    -0.07000
C539        C  0.01066371  0.76691272  0.40681966    -0.18200
C540        C  0.99808239  0.78353408  0.45472888     0.10200
S541        S  0.15513135  0.89730330  0.38267279    -0.33200
S542        S  0.50288981  0.74430880  0.50473578    -0.33200
H543        H  0.46469114  0.75374143  0.52151422     0.28200
H544        H  0.16677828  0.85651835  0.38949198     0.28200
H545        H  0.09879905  0.90015035  0.46234832     0.18800
H546        H  0.99056824  0.72439524  0.39724229     0.18800
C547        C  0.06861133  0.83415378  0.14594508    -0.07000
C548        C  0.01953393  0.82932416  0.15333473    -0.18200
C549        C  0.98820161  0.81533505  0.10811335     0.10200
C550        C  0.01098142  0.84792654  0.05884441    -0.07000
C551        C  0.06668104  0.86901522  0.06027846    -0.18200
C552        C  0.09094848  0.85135371  0.09541752     0.10200
S553        S  0.46547197  0.74300779  0.12218984    -0.33200
S554        S  0.14102806  0.84081161  0.06804015    -0.33200
H555        H  0.12805942  0.79452019  0.09828585     0.28200
H556        H  0.43107844  0.70834254  0.08593947     0.28200
H557        H  0.00105571  0.81777262  0.19231490     0.18800
H558        H  0.09377360  0.90310332  0.03818338     0.18800
C559        C  0.39109251  0.79220597  0.43856377    -0.07000
C560        C  0.42248501  0.79268280  0.39543155    -0.18200
C561        C  0.40675505  0.76140674  0.34980362     0.10200
C562        C  0.35468248  0.72397689  0.34391357    -0.07000
C563        C  0.31964457  0.72238596  0.38041369    -0.18200
C564        C  0.33592464  0.75158732  0.42743921     0.10200
S565        S  0.45567957  0.77337627  0.29947767    -0.33200
S566        S  0.27994758  0.72512580  0.46904577    -0.33200
H567        H  0.26368839  0.67017691  0.96267388     0.28200
H568        H  0.42338340  0.74067481  0.25956512     0.28200
H569        H  0.46126073  0.81569826  0.39430576     0.18800
H570        H  0.27854132  0.69346316  0.37406775     0.18800
C571        C  0.39069245  0.77806486  0.03525337    -0.07000
C572        C  0.39210011  0.79104551  0.08804513    -0.18200
C573        C  0.36920731  0.75572242  0.13029686     0.10200
C574        C  0.34272079  0.70072088  0.12118365    -0.07000
C575        C  0.34106294  0.68265964  0.06984105    -0.18200
C576        C  0.36735731  0.71948909  0.02736302     0.10200
S577        S  0.37689093  0.78363024  0.19532629    -0.33200
S578        S  0.37799571  0.68678570  0.47088549    -0.33200
H579        H  0.33553755  0.63443359  0.47980013     0.28200
H580        H  0.32426083  0.74990628  0.21051378     0.28200
H581        H  0.41454801  0.83141737  0.09699229     0.18800
H582        H  0.32434210  0.63974135  0.06450140     0.18800
C583        C  0.41447030  0.82905734  0.49376388    -0.03400
C584        C  0.98740234  0.86533211  0.50504462    -0.03400
C585        C  0.02073881  0.94093623  0.50178177    -0.03400
C586        C  0.98365857  0.47865044  0.99809400    -0.03400
C587        C  0.40931988  0.94053086  0.49776167    -0.03400
C588        C  0.37803807  0.86597558  0.50154153    -0.03400
O589        O  0.18917439  0.81131389  0.82278909    -0.82700
C590        C  0.07203113  0.64540223  0.67419535     0.96700
O591        O  0.11109949  0.65309804  0.70035091    -0.71800
O592        O  0.19797013  0.74804191  0.68914139    -0.75400
Al593      Al  0.15793697  0.70810415  0.74873637     1.49000
C594        C  0.22729735  0.79870655  0.68634516     0.91900
O595        O  0.13415432  0.82923256  0.69523894    -0.81600
O596        O  0.04826771  0.73806593  0.81488219    -0.75200
Al597      Al  0.16025912  0.81631380  0.75841874     1.90100
O598        O  0.05224002  0.76502370  0.70820022    -0.74300
O599        O  0.04353179  0.64946804  0.79112651    -0.74100
O600        O  0.05042295  0.67273880  0.68423285    -0.79800
O601        O  0.12204208  0.66533045  0.80888407    -0.78000
O602        O  0.12404449  0.74441873  0.75141825    -1.14100
O603        O  0.21215859  0.75380505  0.79669466    -0.73300
C604        C  0.21473135  0.78802033  0.82953918     0.97400
C605        C  0.08627870  0.80845929  0.68516301     0.93800
Al606      Al  0.05448168  0.70945848  0.74938249     1.55600
O607        O  0.22088009  0.82879030  0.71781092    -0.77900
C608        C  0.07366913  0.64103188  0.81861026     0.98000
C609        C  0.07181862  0.78653188  0.82874873     0.92900
O610        O  0.10922132  0.82141843  0.80068152    -0.83200
O611        O  0.35621825  0.66231390  0.69553006    -0.82700
C612        C  0.19394478  0.53426721  0.82680622     0.96700
O613        O  0.21842763  0.58344291  0.81333773    -0.71800
O614        O  0.29859248  0.67286096  0.77671550    -0.75400
Al615      Al  0.24676521  0.60887171  0.74458723     1.49000
C616        C  0.33563711  0.68083988  0.80555634     0.91900
O617        O  0.35789237  0.56302489  0.79281387    -0.81600
O618        O  0.29161210  0.49378737  0.69974315    -0.75200
Al619      Al  0.35087891  0.60962153  0.74452420     1.90100
O620        O  0.27874656  0.49574628  0.80685465    -0.74300
O621        O  0.20372550  0.49491367  0.68766718    -0.74100
O622        O  0.19470109  0.49857057  0.79784558    -0.79800
O623        O  0.18366621  0.55472031  0.71180994    -0.78000
O624        O  0.28112387  0.57296604  0.74543723    -1.14100
O625        O  0.27453098  0.63709376  0.67658263    -0.73300
C626        C  0.32302274  0.66341245  0.66579839     0.97400
C627        C  0.32614134  0.52073219  0.81809229     0.93800
Al628      Al  0.24512540  0.50150436  0.74769115     1.55600
O629        O  0.35449279  0.65056330  0.80356147    -0.77900
C630        C  0.17526612  0.51541046  0.68344019     0.98000
C631        C  0.33261119  0.52605455  0.67346451     0.92900
O632        O  0.35795062  0.57492141  0.68511458    -0.83200
C633        C  0.26762088  0.82185593  0.64389721    -0.07000
C634        C  0.25165017  0.80253333  0.59342926    -0.18200
C635        C  0.28660289  0.79511766  0.56251775     0.10200
C636        C  0.34098862  0.83968766  0.55780373    -0.07000
C637        C  0.35674232  0.86428320  0.60869016    -0.18200
C638        C  0.32177720  0.85348808  0.65206550     0.10200
S639        S  0.26419519  0.72609251  0.08285556    -0.33200
S640        S  0.34794230  0.88724298  0.71335100    -0.33200
H641        H  0.31210331  0.90498306  0.71989297     0.28200
H642        H  0.26786048  0.73233465  0.13783722     0.28200
H643        H  0.20999826  0.77665481  0.58700353     0.18800
H644        H  0.39344680  0.89867634  0.61276720     0.18800
C645        C  0.25221498  0.80508735  0.87295405    -0.07000
C646        C  0.30407484  0.82765933  0.85911796    -0.18200
C647        C  0.34371097  0.85017057  0.89632086     0.10200
C648        C  0.33402636  0.84728418  0.95328157    -0.07000
C649        C  0.27987179  0.83032548  0.96301141    -0.18200
C650        C  0.23962130  0.80646887  0.92591919     0.10200
S651        S  0.40381873  0.88112877  0.86250224    -0.33200
S652        S  0.17281282  0.77706681  0.94965902    -0.33200
H653        H  0.14963439  0.74003904  0.90861299     0.29400
H654        H  0.42589003  0.90001444  0.91105391     0.28200
H655        H  0.31394529  0.82914233  0.81748341     0.18800
H656        H  0.26623725  0.83744083  0.99891135     0.18800
C657        C  0.37939326  0.95633435  0.94869301    -0.07000
C658        C  0.40657248  0.48188484  0.90158483    -0.18200
C659        C  0.39352846  0.50742805  0.86323411     0.10200
C660        C  0.34400795  0.49928823  0.86126782    -0.07000
C661        C  0.30939200  0.96663497  0.89984741    -0.18200
C662        C  0.32495092  0.94852528  0.94431721     0.10200
S663        S  0.44021920  0.54480204  0.81305749    -0.33200
S664        S  0.27004124  0.92957505  0.98987458    -0.33200
H665        H  0.22976041  0.89501515  0.95651272     0.28200
H666        H  0.44614240  0.59392304  0.83066190     0.28200
H667        H  0.43480959  0.47590200  0.88731451     0.18800
H668        H  0.27025088  0.96019151  0.89695361     0.18800
C669        C  0.38724474  0.96673260  0.54201721    -0.07000
C670        C  0.33816672  0.93668923  0.56780288    -0.18200
C671        C  0.31844674  0.95546748  0.60752294     0.10200
C672        C  0.35050168  0.50651163  0.62783243    -0.07000
C673        C  0.39648373  0.54037874  0.59829199    -0.18200
C674        C  0.40304501  0.52307418  0.54787368     0.10200
S675        S  0.24963248  0.91704871  0.62267104    -0.33200
S676        S  0.37653671  0.55369098  0.50470069    -0.33200
H677        H  0.40351523  0.55603455  0.45844674     0.28200
H678        H  0.24195447  0.96020800  0.61048022     0.28200
H679        H  0.31076931  0.89865595  0.55382161     0.18800
H680        H  0.41812927  0.58308156  0.60701074     0.18800
C681        C  0.05161297  0.60334651  0.63175636    -0.07000
C682        C  0.08072332  0.61305201  0.58567582    -0.18200
C683        C  0.06303137  0.57744907  0.54241178     0.10200
C684        C  0.01155889  0.52497980  0.54470136    -0.07000
C685        C  0.98734296  0.51613422  0.59483256    -0.18200
C686        C  0.00498250  0.55332446  0.63626036     0.10200
S687        S  0.11090601  0.61210684  0.48772647    -0.33200
S688        S  0.46460502  0.53275569  0.69426015    -0.33200
H689        H  0.00466633  0.56684654  0.72752854     0.28200
H690        H  0.10199157  0.56865119  0.95677521     0.28200
H691        H  0.11762842  0.65097250  0.58258622     0.18800
H692        H  0.45220099  0.47964084  0.60306383     0.18800
C693        C  0.05154413  0.60229025  0.86297053    -0.07000
C694        C  0.03048350  0.61446826  0.90608653    -0.18200
C695        C  0.00649110  0.57838919  0.94939240     0.10200
C696        C  0.00354086  0.52510534  0.95073303    -0.07000
C697        C  0.01991908  0.51492433  0.90252034    -0.18200
C698        C  0.04293513  0.55050819  0.85939481     0.10200
S699        S  0.99759151  0.61532154  0.50259027    -0.33200
S700        S  0.04718418  0.52454738  0.79595015    -0.33200
H701        H  0.09731359  0.56784610  0.78279475     0.28200
H702        H  0.97939193  0.64225131  0.47095547     0.28200
H703        H  0.03548951  0.65451484  0.90663217     0.18800
H704        H  0.00134068  0.47424071  0.89469981     0.18800
C705        C  0.13500896  0.49743103  0.64206376    -0.07000
C706        C  0.08275313  0.95913846  0.65212410    -0.18200
C707        C  0.04400218  0.94569940  0.61320247     0.10200
C708        C  0.05650648  0.96423441  0.55830970    -0.07000
C709        C  0.10616500  0.51273563  0.55916413    -0.18200
C710        C  0.14567177  0.52656417  0.59544342     0.10200
S711        S  0.98135802  0.91448059  0.64211514    -0.33200
S712        S  0.20928260  0.58312004  0.57912861    -0.33200
H713        H  0.23691724  0.55935250  0.59883243     0.28200
H714        H  0.96528048  0.91264189  0.59052237     0.28200
H715        H  0.07145331  0.94196325  0.69158647     0.18800
H716        H  0.11938658  0.53992313  0.52785601     0.18800
C717        C  0.15616520  0.51597473  0.87128579    -0.07000
C718        C  0.10633329  0.48067800  0.85773441    -0.18200
C719        C  0.06596847  0.95336469  0.89482704     0.10200
C720        C  0.06937246  0.96388049  0.95219628    -0.07000
C721        C  0.12561508  0.99021485  0.96155694    -0.18200
C722        C  0.16727222  0.51918056  0.92460770     0.10200
S723        S  0.01528684  0.40376462  0.85817440    -0.33200
S724        S  0.23343068  0.54917473  0.94717089    -0.33200
H725        H  0.25823841  0.58363446  0.90361831     0.28200
H726        H  0.99046786  0.89459089  0.90636674     0.28200
H727        H  0.09981849  0.47171290  0.81584980     0.18800
H728        H  0.13982976  0.98130579  0.99645765     0.18800
C729        C  0.01541810  0.84001567  0.96409130    -0.07000
C730        C  0.06823912  0.86765949  0.94449819    -0.18200
C731        C  0.08742743  0.85285369  0.90109759     0.10200
C732        C  0.05549001  0.80307301  0.87768390    -0.07000
C733        C  0.01066337  0.76691501  0.90681822    -0.18200
C734        C  0.99808190  0.78353559  0.95472791     0.10200
S735        S  0.15513305  0.89730269  0.88267719    -0.33200
S736        S  0.50289129  0.74431062  0.00473419    -0.33200
H737        H  0.46469126  0.75374126  0.02151262     0.28200
H738        H  0.16677735  0.85651544  0.88949170     0.28200
H739        H  0.09879849  0.90015127  0.96234995     0.18800
H740        H  0.99056690  0.72439731  0.89724014     0.18800
C741        C  0.06861574  0.83415585  0.64594295    -0.07000
C742        C  0.01953887  0.82932724  0.65333434    -0.18200
C743        C  0.98820502  0.81533742  0.60811396     0.10200
C744        C  0.01098367  0.84792741  0.55884385    -0.07000
C745        C  0.06668355  0.86901726  0.56027702    -0.18200
C746        C  0.09095186  0.85135590  0.59541476     0.10200
S747        S  0.46547419  0.74301011  0.62219236    -0.33200
S748        S  0.14103296  0.84081715  0.56803571    -0.33200
H749        H  0.12806820  0.79452744  0.59828235     0.28200
H750        H  0.43108151  0.70834365  0.58594215     0.28200
H751        H  0.00106233  0.81777735  0.69231497     0.18800
H752        H  0.09377552  0.90310489  0.53818181     0.18800
C753        C  0.39109182  0.79220720  0.93856497    -0.07000
C754        C  0.42248477  0.79268510  0.89543279    -0.18200
C755        C  0.40675604  0.76140887  0.84980492     0.10200
C756        C  0.35468434  0.72397567  0.84391592    -0.07000
C757        C  0.31964563  0.72238322  0.88041621    -0.18200
C758        C  0.33592442  0.75158762  0.92744030     0.10200
S759        S  0.45568120  0.77338402  0.79947767    -0.33200
S760        S  0.27994656  0.72512970  0.96904548    -0.33200
H761        H  0.26369020  0.67017376  0.46266934     0.28200
H762        H  0.42338682  0.74067317  0.75956887     0.28200
H763        H  0.46126004  0.81570232  0.89430701     0.18800
H764        H  0.27854277  0.69345767  0.87407121     0.18800
C765        C  0.39069354  0.77806287  0.53525244    -0.07000
C766        C  0.39210164  0.79104340  0.58804446    -0.18200
C767        C  0.36920905  0.75572004  0.63029619     0.10200
C768        C  0.34272345  0.70071841  0.62118310    -0.07000
C769        C  0.34106599  0.68265704  0.56984049    -0.18200
C770        C  0.36735891  0.71948698  0.52736216     0.10200
S771        S  0.37689295  0.78362735  0.69532608    -0.33200
S772        S  0.37799655  0.68678752  0.97088795    -0.33200
H773        H  0.33553714  0.63443580  0.97980086     0.28200
H774        H  0.32426237  0.74990487  0.71051278     0.28200
H775        H  0.41454947  0.83141534  0.59699222     0.18800
H776        H  0.32434590  0.63973922  0.56450091     0.18800
C777        C  0.91447112  0.32905423  0.99376721    -0.03400
C778        C  0.48740315  0.36532892  0.00504554    -0.03400
C779        C  0.52073759  0.44093249  0.00178731    -0.03400
C780        C  0.48366187  0.97865560  0.49808700    -0.03400
C781        C  0.90931640  0.44052496  0.99776891    -0.03400
C782        C  0.87803759  0.36597094  0.00154530    -0.03400
O783        O  0.68917906  0.31131213  0.32278691    -0.82700
C784        C  0.57203324  0.14540407  0.17419183     0.96700
O785        O  0.61110307  0.15310036  0.20034491    -0.71800
O786        O  0.69797207  0.24804425  0.18913721    -0.75400
Al787      Al  0.65794087  0.20810522  0.24873047     1.49000
C788        C  0.72729821  0.29870906  0.18634242     0.91900
O789        O  0.63415622  0.32923341  0.19523972    -0.81600
O790        O  0.54826952  0.23806291  0.31487989    -0.75200
Al791      Al  0.66026166  0.31631363  0.25841807     1.90100
O792        O  0.55224210  0.26502294  0.20819888    -0.74300
O793        O  0.54353724  0.14946912  0.29112191    -0.74100
O794        O  0.55042548  0.17274052  0.18423029    -0.79800
O795        O  0.62204807  0.16533118  0.30887676    -0.78000
O796        O  0.62404760  0.24441905  0.25141526    -1.14100
O797        O  0.71216307  0.25380434  0.29668812    -0.73300
C798        C  0.71473600  0.28801805  0.32953451     0.97400
C799        C  0.58628096  0.30845860  0.18516215     0.93800
Al800      Al  0.55448459  0.20945823  0.24937985     1.55600
O801        O  0.72088105  0.32879195  0.21780906    -0.77900
C802        C  0.57367561  0.14103330  0.31860392     0.98000
C803        C  0.57182033  0.28652811  0.32874796     0.92900
O804        O  0.60922391  0.32141563  0.30068242    -0.83200
O805        O  0.85621521  0.16232206  0.19553766    -0.82700
C806        C  0.69393825  0.03426645  0.32679425     0.96700
O807        O  0.71842382  0.08344337  0.31333028    -0.71800
O808        O  0.79859057  0.17286282  0.27671141    -0.75400
Al809      Al  0.74676156  0.10887355  0.24458123     1.49000
C810        C  0.83563055  0.18083558  0.30555725     0.91900
O811        O  0.85788419  0.06301668  0.29280185    -0.81600
O812        O  0.79161555  0.99379554  0.19973607    -0.75200
Al813      Al  0.85087306  0.10962230  0.24452191     1.90100
O814        O  0.77873647  0.99574396  0.30684696    -0.74300
O815        O  0.70373044  0.99492510  0.18764905    -0.74100
O816        O  0.69469126  0.99857069  0.29782862    -0.79800
O817        O  0.68366279  0.05472269  0.21180321    -0.78000
O818        O  0.78111921  0.07296754  0.24543065    -1.14100
O819        O  0.77452858  0.13709411  0.17657794    -0.73300
C820        C  0.82302156  0.16341705  0.16580077     0.97400
C821        C  0.82613269  0.02072421  0.31808035     0.93800
Al822      Al  0.74512154  0.00150736  0.24767886     1.55600
O823        O  0.85448023  0.15055334  0.30356596    -0.77900
C824        C  0.67526823  0.01541921  0.18342637     0.98000
C825        C  0.83261364  0.02606528  0.17345707     0.92900
O826        O  0.85794842  0.07493271  0.18510556    -0.83200
C827        C  0.76762113  0.32185940  0.14389570    -0.07000
C828        C  0.75165118  0.30253395  0.09342870    -0.18200
C829        C  0.78660321  0.29511484  0.06252063     0.10200
C830        C  0.84098860  0.33968394  0.05780687    -0.07000
C831        C  0.85674265  0.36428103  0.10869248    -0.18200
C832        C  0.82177693  0.35348880  0.15206618     0.10200
S833        S  0.76419688  0.22608352  0.58286522    -0.33200
S834        S  0.84794034  0.38724598  0.21335096    -0.33200
H835        H  0.81210304  0.40498907  0.21988683     0.28200
H836        H  0.76787278  0.23233464  0.63784554     0.28200
H837        H  0.70999880  0.27665595  0.08700193     0.18800
H838        H  0.89344656  0.39867393  0.11276908     0.18800
C839        C  0.75221901  0.30508136  0.37294948    -0.07000
C840        C  0.80407946  0.32765832  0.35911460    -0.18200
C841        C  0.84371370  0.35016510  0.39631992     0.10200
C842        C  0.83402696  0.34727507  0.45328074    -0.07000
C843        C  0.77987059  0.33030861  0.46300951    -0.18200
C844        C  0.73962212  0.30645131  0.42591533     0.10200
S845        S  0.90382201  0.38112158  0.36250323    -0.33200
S846        S  0.67281135  0.27703300  0.44965153    -0.33200
H847        H  0.64964846  0.23999237  0.40861228     0.29400
H848        H  0.92589122  0.40000616  0.41105597     0.28200
H849        H  0.81395136  0.32914615  0.31748031     0.18800
H850        H  0.76623257  0.33741831  0.49890988     0.18800
C851        C  0.87939130  0.45632609  0.44869731    -0.07000
C852        C  0.90657528  0.98189124  0.40157509    -0.18200
C853        C  0.89352751  0.00743146  0.36322424     0.10200
C854        C  0.84400144  0.99927741  0.36125254    -0.07000
C855        C  0.80939870  0.46665013  0.39986186    -0.18200
C856        C  0.82495038  0.44852090  0.44432262     0.10200
S857        S  0.94022423  0.04482563  0.31305786    -0.33200
S858        S  0.77002930  0.42954273  0.48987163    -0.33200
H859        H  0.72976160  0.39499366  0.45649211     0.28200
H860        H  0.94613633  0.09393847  0.33067451     0.28200
H861        H  0.93481436  0.97591167  0.38730274     0.18800
H862        H  0.77026071  0.46021679  0.39697218     0.18800
C863        C  0.88723863  0.46672480  0.04202493    -0.07000
C864        C  0.83815774  0.43668222  0.06780719    -0.18200
C865        C  0.81843686  0.45546196  0.10752596     0.10200
C866        C  0.85050777  0.00652365  0.12782718    -0.07000
C867        C  0.89648964  0.04039118  0.09828657    -0.18200
C868        C  0.90305092  0.02308604  0.04786848     0.10200
S869        S  0.74962068  0.41705022  0.12266889    -0.33200
S870        S  0.87654373  0.05370274  0.00469343    -0.33200
H871        H  0.90351718  0.05604046  0.95843769     0.28200
H872        H  0.74195191  0.46021704  0.11048503     0.28200
H873        H  0.81076187  0.39864783  0.05382714     0.18800
H874        H  0.91813377  0.08309463  0.10700419     0.18800
C875        C  0.55161421  0.10334968  0.13175277    -0.07000
C876        C  0.58072238  0.11306023  0.08567022    -0.18200
C877        C  0.56303228  0.07745936  0.04240524     0.10200
C878        C  0.51156118  0.02498835  0.04469487    -0.07000
C879        C  0.48734679  0.01613848  0.09482702    -0.18200
C880        C  0.50498568  0.05332554  0.13625718     0.10200
S881        S  0.61090815  0.11212049  0.98772086    -0.33200
S882        S  0.96460952  0.03274847  0.19425894    -0.33200
H883        H  0.50466299  0.06685721  0.22752514     0.28200
H884        H  0.60199596  0.06865895  0.45676671     0.28200
H885        H  0.61762629  0.15098290  0.08258081     0.18800
H886        H  0.95220637  0.97964363  0.10305664     0.18800
C887        C  0.55155207  0.10229337  0.36296412    -0.07000
C888        C  0.53049456  0.11447426  0.40608026    -0.18200
C889        C  0.50649917  0.07839535  0.44938525     0.10200
C890        C  0.50354536  0.02511008  0.45072587    -0.07000
C891        C  0.51992135  0.01492695  0.40251304    -0.18200
C892        C  0.54293722  0.05050969  0.35938676     0.10200
S893        S  0.49759562  0.11533171  0.00257980    -0.33200
S894        S  0.54717736  0.02454611  0.29594048    -0.33200
H895        H  0.59730642  0.06784259  0.28277968     0.28200
H896        H  0.47939116  0.14225550  0.97094295     0.28200
H897        H  0.53550483  0.15452270  0.40662645     0.18800
H898        H  0.50133976  0.97424294  0.39469290     0.18800
C899        C  0.63501053  0.99744082  0.14205162    -0.07000
C900        C  0.58275155  0.45912403  0.15212944    -0.18200
C901        C  0.54400016  0.44568863  0.11320874     0.10200
C902        C  0.55650374  0.46422780  0.05831698    -0.07000
C903        C  0.60616251  0.01274421  0.05915478    -0.18200
C904        C  0.64567039  0.02657584  0.09543293     0.10200
S905        S  0.48135759  0.41447841  0.14212426    -0.33200
S906        S  0.70927877  0.08313500  0.07911741    -0.33200
H907        H  0.73691571  0.05936665  0.09881299     0.28200
H908        H  0.46528159  0.41264410  0.09053177     0.28200
H909        H  0.57145189  0.44194664  0.19159090     0.18800
H910        H  0.61938144  0.03992916  0.02784404     0.18800
C911        C  0.65616048  0.01597322  0.37127533    -0.07000
C912        C  0.60632781  0.98067612  0.35772591    -0.18200
C913        C  0.56596933  0.45336295  0.39483164     0.10200
C914        C  0.56937243  0.46387754  0.45220127    -0.07000
C915        C  0.62561492  0.49021283  0.46156193    -0.18200
C916        C  0.66727007  0.01918128  0.42459705     0.10200
S917        S  0.51528073  0.90376328  0.35817141    -0.33200
S918        S  0.73342924  0.04918079  0.44715965    -0.33200
H919        H  0.75823778  0.08362968  0.40360055     0.28200
H920        H  0.49047032  0.39458569  0.40636870     0.28200
H921        H  0.59981086  0.97171032  0.31584199     0.18800
H922        H  0.63983031  0.48130174  0.49646073     0.18800
C923        C  0.51541897  0.34001075  0.46409025    -0.07000
C924        C  0.56823921  0.36765492  0.44449536    -0.18200
C925        C  0.58742827  0.35284800  0.40109689     0.10200
C926        C  0.55549069  0.30306762  0.37768295    -0.07000
C927        C  0.51066343  0.26690942  0.40681642    -0.18200
C928        C  0.49808239  0.28353026  0.45472634     0.10200
S929        S  0.65513576  0.39729333  0.38268092    -0.33200
S930        S  0.00289194  0.24430472  0.50473165    -0.33200
H931        H  0.96469294  0.25373588  0.52151214     0.28200
H932        H  0.66677184  0.35649979  0.38949634     0.28200
H933        H  0.59879853  0.40014924  0.46234414     0.18800
H934        H  0.49056705  0.22439228  0.39723804     0.18800
C935        C  0.56861863  0.33415361  0.14594067    -0.07000
C936        C  0.51954133  0.32932449  0.15333218    -0.18200
C937        C  0.48820774  0.31533401  0.10811174     0.10200
C938        C  0.51098602  0.34792373  0.05884227    -0.07000
C939        C  0.56668571  0.36901186  0.06027388    -0.18200
C940        C  0.59095310  0.35134863  0.09541077     0.10200
S941        S  0.96548147  0.24300750  0.12218597    -0.33200
S942        S  0.64102398  0.34079498  0.06802707    -0.33200
H943        H  0.62807028  0.29451863  0.09829097     0.28200
H944        H  0.93108111  0.20834371  0.08593988     0.28200
H945        H  0.50106448  0.31777452  0.19231207     0.18800
H946        H  0.59377813  0.40310110  0.03818068     0.18800
C947        C  0.89109186  0.29219939  0.43856797    -0.07000
C948        C  0.92248350  0.29267744  0.39543468    -0.18200
C949        C  0.90675312  0.26140167  0.34980677     0.10200
C950        C  0.85468021  0.22397113  0.34391724    -0.07000
C951        C  0.81964283  0.22237877  0.38041906    -0.18200
C952        C  0.83592383  0.25157977  0.42744487     0.10200
S953        S  0.95567806  0.27337638  0.29947944    -0.33200
S954        S  0.77994892  0.22511659  0.46905495    -0.33200
H955        H  0.76368632  0.17016573  0.96267632     0.28200
H956        H  0.92338453  0.24065978  0.25957337     0.28200
H957        H  0.96125879  0.31569662  0.39430650     0.18800
H958        H  0.77853970  0.19345522  0.37407417     0.18800
C959        C  0.89069660  0.27806252  0.03525682    -0.07000
C960        C  0.89210627  0.29104543  0.08804800    -0.18200
C961        C  0.86921502  0.25572359  0.13030047     0.10200
C962        C  0.84272543  0.20072228  0.12118729    -0.07000
C963        C  0.84106517  0.18265906  0.06984570    -0.18200
C964        C  0.86736063  0.21948698  0.02736793     0.10200
S965        S  0.87690491  0.28363223  0.19533053    -0.33200
S966        S  0.87799409  0.18677917  0.47089358    -0.33200
H967        H  0.83551751  0.13443596  0.47979892     0.28200
H968        H  0.82427378  0.24991556  0.21051833     0.28200
H969        H  0.91455462  0.33141780  0.09699352     0.18800
H970        H  0.82434375  0.13974045  0.06450656     0.18800
C971        C  0.91447106  0.32905290  0.49376671    -0.03400
C972        C  0.48740331  0.36532818  0.50504569    -0.03400
C973        C  0.52073795  0.44093191  0.50178716    -0.03400
C974        C  0.48366105  0.97865711  0.99808782    -0.03400
C975        C  0.90931657  0.44052351  0.49776782    -0.03400
C976        C  0.87803730  0.36596927  0.50154424    -0.03400
O977        O  0.68918277  0.31131414  0.82278572    -0.82700
C978        C  0.57203466  0.14540362  0.67419151     0.96700
O979        O  0.61110274  0.15309851  0.70034680    -0.71800
O980        O  0.69797326  0.24804145  0.68913879    -0.75400
Al981      Al  0.65794090  0.20810402  0.74873222     1.49000
C982        C  0.72729936  0.29870613  0.68634226     0.91900
O983        O  0.63416025  0.32923552  0.69523815    -0.81600
O984        O  0.54827110  0.23806612  0.81487745    -0.75200
Al985      Al  0.66026492  0.31631482  0.75841699     1.90100
O986        O  0.55224615  0.26502543  0.70819644    -0.74300
O987        O  0.54353621  0.14946971  0.79111960    -0.74100
O988        O  0.55042864  0.17274235  0.68422772    -0.79800
O989        O  0.62204610  0.16533125  0.80887879    -0.78000
O990        O  0.62404955  0.24441986  0.75141503    -1.14100
O991        O  0.71216327  0.25380290  0.79668982    -0.73300
C992        C  0.71473825  0.28801873  0.82953453     0.97400
C993        C  0.58628520  0.30846088  0.68515990     0.93800
Al994      Al  0.55448670  0.20946034  0.74937764     1.55600
O995        O  0.72088281  0.32879040  0.71780751    -0.77900
C996        C  0.57367311  0.14103311  0.81860334     0.98000
C997        C  0.57182287  0.28653108  0.82874674     0.92900
O998        O  0.60922792  0.32141840  0.80068225    -0.83200
O999        O  0.85621755  0.16232033  0.69553837    -0.82700
C1000       C  0.69394112  0.03426590  0.82679709     0.96700
O1001       O  0.71842775  0.08344293  0.81333332    -0.71800
O1002       O  0.79859443  0.17286196  0.77671292    -0.75400
Al1003     Al  0.74676435  0.10887320  0.74458339     1.49000
C1004       C  0.83563411  0.18083408  0.80555883     0.91900
O1005       O  0.85788482  0.06301426  0.79280147    -0.81600
O1006       O  0.79161521  0.99379371  0.69973489    -0.75200
Al1007     Al  0.85087492  0.10962027  0.74452208     1.90100
O1008       O  0.77873685  0.99574180  0.80684643    -0.74300
O1009       O  0.70373087  0.99492493  0.68765040    -0.74100
O1010       O  0.69469258  0.99856986  0.79783045    -0.79800
O1011       O  0.68366405  0.05472265  0.71180611    -0.78000
O1012       O  0.78112109  0.07296650  0.74543153    -1.14100
O1013       O  0.77453101  0.13709383  0.67657951    -0.73300
C1014       C  0.82302395  0.16341614  0.66580194     0.97400
C1015       C  0.82613275  0.02072244  0.81808041     0.93800
Al1016     Al  0.74512223  0.00150621  0.74767921     1.55600
O1017       O  0.85448369  0.15055181  0.80356675    -0.77900
C1018       C  0.67526843  0.01541876  0.68342910     0.98000
C1019       C  0.83261348  0.02606310  0.67345573     0.92900
O1020       O  0.85794908  0.07493021  0.68510505    -0.83200
C1021       C  0.76762157  0.32185504  0.64389506    -0.07000
C1022       C  0.75165088  0.30252890  0.59342831    -0.18200
C1023       C  0.78660355  0.29511099  0.56251990     0.10200
C1024       C  0.84098867  0.33968137  0.55780580    -0.07000
C1025       C  0.85674282  0.36427850  0.60869122    -0.18200
C1026       C  0.82177740  0.35348536  0.65206515     0.10200
S1027       S  0.76419500  0.22608692  0.08286509    -0.33200
S1028       S  0.84794064  0.38724261  0.71334996    -0.33200
H1029       H  0.81210428  0.40498706  0.71988468     0.28200
H1030       H  0.76787121  0.23233777  0.13784539     0.28200
H1031       H  0.70999885  0.27665045  0.58700214     0.18800
H1032       H  0.89344642  0.39867181  0.61276772     0.18800
C1033       C  0.75222079  0.30508178  0.87294986    -0.07000
C1034       C  0.80408118  0.32765698  0.85911582    -0.18200
C1035       C  0.84371508  0.35016548  0.89632116     0.10200
C1036       C  0.83402790  0.34727644  0.95328160    -0.07000
C1037       C  0.77987188  0.33031128  0.96300947    -0.18200
C1038       C  0.73962370  0.30645401  0.92591516     0.10200
S1039       S  0.90382355  0.38112472  0.86250490    -0.33200
S1040       S  0.67281301  0.27703884  0.94965075    -0.33200
H1041       H  0.64964885  0.23999884  0.90861128     0.29400
H1042       H  0.92589276  0.40000923  0.91105772     0.28200
H1043       H  0.81395349  0.32914336  0.81748148     0.18800
H1044       H  0.76623404  0.33742250  0.99890927     0.18800
C1045       C  0.87939110  0.45632713  0.94869847    -0.07000
C1046       C  0.90657351  0.98189102  0.90157828    -0.18200
C1047       C  0.89352564  0.00742868  0.86322508     0.10200
C1048       C  0.84400081  0.99927714  0.86125392    -0.07000
C1049       C  0.80939842  0.46664836  0.89986110    -0.18200
C1050       C  0.82495001  0.44852111  0.94432302     0.10200
S1051       S  0.94022007  0.04481440  0.81305439    -0.33200
S1052       S  0.77002901  0.42954562  0.98987171    -0.33200
H1053       H  0.72976074  0.39499437  0.95649392     0.28200
H1054       H  0.94613720  0.09393066  0.83066645     0.28200
H1055       H  0.93481276  0.97591122  0.88730836     0.18800
H1056       H  0.77025987  0.46021386  0.89697012     0.18800
C1057       C  0.88723896  0.46672298  0.54202427    -0.07000
C1058       C  0.83815837  0.43668037  0.56780721    -0.18200
C1059       C  0.81843783  0.45545967  0.60752676     0.10200
C1060       C  0.85050740  0.00652154  0.62782502    -0.07000
C1061       C  0.89648793  0.04038982  0.59828271    -0.18200
C1062       C  0.90305001  0.02308395  0.54786506     0.10200
S1063       S  0.74962215  0.41704601  0.62267196    -0.33200
S1064       S  0.87654563  0.05370084  0.50468680    -0.33200
H1065       H  0.90352399  0.05604081  0.45843420     0.28200
H1066       H  0.74195102  0.46021100  0.61048683     0.28200
H1067       H  0.81076207  0.39864516  0.55382738     0.18800
H1068       H  0.91813075  0.08309349  0.60699924     0.18800
C1069       C  0.55161595  0.10334856  0.63175241    -0.07000
C1070       C  0.58072563  0.11305767  0.58567089    -0.18200
C1071       C  0.56303471  0.07745644  0.54240580     0.10200
C1072       C  0.51156210  0.02498650  0.54469453    -0.07000
C1073       C  0.48734641  0.01613771  0.59482584    -0.18200
C1074       C  0.50498621  0.05332499  0.63625597     0.10200
S1075       S  0.61091133  0.11211705  0.48772200    -0.33200
S1076       S  0.96461059  0.03274705  0.69425776    -0.33200
H1077       H  0.50466354  0.06685682  0.72752412     0.28200
H1078       H  0.60199561  0.06866239  0.95676678     0.28200
H1079       H  0.61763007  0.15097900  0.58258216     0.18800
H1080       H  0.95220569  0.97964352  0.60305514     0.18800
C1081       C  0.55154766  0.10229277  0.86296296    -0.07000
C1082       C  0.53048844  0.11447350  0.90607791    -0.18200
C1083       C  0.50649514  0.07839537  0.94938402     0.10200
C1084       C  0.50354401  0.02511126  0.95072636    -0.07000
C1085       C  0.51992083  0.01492804  0.90251436    -0.18200
C1086       C  0.54293528  0.05050968  0.85938726     0.10200
S1087       S  0.49759833  0.11533050  0.50258153    -0.33200
S1088       S  0.54717540  0.02454443  0.79594190    -0.33200
H1089       H  0.59730337  0.06784186  0.78277955     0.28200
H1090       H  0.47939651  0.14225625  0.47094395     0.28200
H1091       H  0.53549640  0.15452056  0.90662266     0.18800
H1092       H  0.50133971  0.97424367  0.89469551     0.18800
C1093       C  0.63501084  0.99744076  0.64205404    -0.07000
C1094       C  0.58275098  0.45912709  0.65213167    -0.18200
C1095       C  0.54400065  0.44569052  0.61320939     0.10200
C1096       C  0.55650515  0.46422803  0.55831703    -0.07000
C1097       C  0.60616620  0.01274174  0.55915401    -0.18200
C1098       C  0.64567363  0.02657193  0.59543257     0.10200
S1099       S  0.48135755  0.41447888  0.64212324    -0.33200
S1100       S  0.70928496  0.08312566  0.57911514    -0.33200
H1101       H  0.73691839  0.05935540  0.59881558     0.28200
H1102       H  0.46528223  0.41264406  0.59053032     0.28200
H1103       H  0.57145009  0.44195089  0.69159372     0.18800
H1104       H  0.61938625  0.03992692  0.52784420     0.18800
C1105       C  0.65616285  0.01597306  0.87127828    -0.07000
C1106       C  0.60632988  0.98067848  0.85772800    -0.18200
C1107       C  0.56597080  0.45336380  0.89483218     0.10200
C1108       C  0.56937317  0.46387830  0.95220197    -0.07000
C1109       C  0.62561579  0.49021374  0.96156339    -0.18200
C1110       C  0.66727098  0.01917934  0.92460032     0.10200
S1111       S  0.51528227  0.90376611  0.85817156    -0.33200
S1112       S  0.73342903  0.04917201  0.94716430    -0.33200
H1113       H  0.75824063  0.08362093  0.90360588     0.28200
H1114       H  0.49047160  0.39458829  0.90636850     0.28200
H1115       H  0.59981326  0.97171402  0.81584379     0.18800
H1116       H  0.63983074  0.48130381  0.99646320     0.18800
C1117       C  0.51541935  0.34001226  0.96408963    -0.07000
C1118       C  0.56824020  0.36765614  0.94449641    -0.18200
C1119       C  0.58743015  0.35284952  0.90109814     0.10200
C1120       C  0.55549241  0.30307046  0.87768193    -0.07000
C1121       C  0.51066386  0.26691259  0.90681392    -0.18200
C1122       C  0.49808303  0.28353220  0.95472478     0.10200
S1123       S  0.65513853  0.39729373  0.88268541    -0.33200
S1124       S  0.00289800  0.24430849  0.00472888    -0.33200
H1125       H  0.96469656  0.25373572  0.02150996     0.28200
H1126       H  0.66677139  0.35649731  0.88949430     0.28200
H1127       H  0.59879911  0.40015007  0.96234647     0.18800
H1128       H  0.49056676  0.22439542  0.89723417     0.18800
C1129       C  0.56862288  0.33415619  0.64593884    -0.07000
C1130       C  0.51954608  0.32932780  0.65333191    -0.18200
C1131       C  0.48821064  0.31533566  0.60811280     0.10200
C1132       C  0.51098730  0.34792403  0.55884231    -0.07000
C1133       C  0.56668706  0.36901280  0.56027275    -0.18200
C1134       C  0.59095583  0.35135031  0.59540835     0.10200
S1135       S  0.96548358  0.24300956  0.62218962    -0.33200
S1136       S  0.64102763  0.34079883  0.56802325    -0.33200
H1137       H  0.62807854  0.29452527  0.59828962     0.28200
H1138       H  0.93108384  0.20834411  0.58594392     0.28200
H1139       H  0.50107075  0.31777837  0.69231259     0.18800
H1140       H  0.59377855  0.40310155  0.53817841     0.18800
C1141       C  0.89109215  0.29220039  0.93856874    -0.07000
C1142       C  0.92248387  0.29267977  0.89543516    -0.18200
C1143       C  0.90675481  0.26140327  0.84980770     0.10200
C1144       C  0.85468277  0.22396870  0.84391998    -0.07000
C1145       C  0.81964494  0.22237435  0.88042243    -0.18200
C1146       C  0.83592461  0.25157902  0.92744629     0.10200
S1147       S  0.95567993  0.27338417  0.79947817    -0.33200
S1148       S  0.77994888  0.22511875  0.96905510    -0.33200
H1149       H  0.76368510  0.17016395  0.46267064     0.28200
H1150       H  0.92338841  0.24065706  0.75957620     0.28200
H1151       H  0.96125865  0.31569996  0.89430704     0.18800
H1152       H  0.77854204  0.19344809  0.87407852     0.18800
C1153       C  0.89069694  0.27806128  0.53525682    -0.07000
C1154       C  0.89210799  0.29104445  0.58804833    -0.18200
C1155       C  0.86921720  0.25572286  0.63030121     0.10200
C1156       C  0.84272791  0.20072145  0.62118827    -0.07000
C1157       C  0.84106776  0.18265804  0.56984682    -0.18200
C1158       C  0.86736068  0.21948533  0.52736799     0.10200
S1159       S  0.87690737  0.28363077  0.69533155    -0.33200
S1160       S  0.87799837  0.18678173  0.97089591    -0.33200
H1161       H  0.83551309  0.13444215  0.97979367     0.28200
H1162       H  0.82427616  0.24991511  0.71051988     0.28200
H1163       H  0.91455617  0.33141655  0.59699363     0.18800
H1164       H  0.82434623  0.13973932  0.56450822     0.18800
C1165       C  0.91446946  0.82905902  0.99376493    -0.03400
C1166       C  0.48740133  0.86533293  0.00504498    -0.03400
C1167       C  0.52073768  0.94093715  0.00178224    -0.03400
C1168       C  0.48365886  0.47864936  0.49809328    -0.03400
C1169       C  0.90931927  0.94053283  0.99776383    -0.03400
C1170       C  0.87803776  0.86597795  0.00154333    -0.03400
O1171       O  0.68917198  0.81131225  0.32278989    -0.82700
C1172       C  0.57202891  0.64540261  0.17419544     0.96700
O1173       O  0.61109938  0.65310022  0.20034815    -0.71800
O1174       O  0.69796803  0.74804502  0.18913885    -0.75400
Al1175     Al  0.65793668  0.70810539  0.24873374     1.49000
C1176       C  0.72729500  0.79870978  0.18634424     0.91900
O1177       O  0.63415048  0.82923190  0.19524087    -0.81600
O1178       O  0.54826701  0.73806401  0.31488418    -0.75200
Al1179     Al  0.66025638  0.81631325  0.25841967     1.90100
O1180       O  0.55223642  0.76502192  0.20820256    -0.74300
O1181       O  0.54353262  0.64946795  0.29112833    -0.74100
O1182       O  0.55041930  0.67273725  0.18423516    -0.79800
O1183       O  0.62204360  0.66532969  0.30888125    -0.78000
O1184       O  0.62404274  0.74441836  0.25141818    -1.14100
O1185       O  0.71215845  0.75380623  0.29669193    -0.73300
C1186       C  0.71473002  0.78801953  0.32953827     0.97400
C1187       C  0.58627460  0.80845790  0.18516547     0.93800
Al1188     Al  0.55447981  0.70945716  0.24938451     1.55600
O1189       O  0.72087769  0.82879214  0.21781176    -0.77900
C1190       C  0.57367106  0.64103168  0.31860989     0.98000
C1191       C  0.57181733  0.78652996  0.32874989     0.92900
O1192       O  0.60921858  0.82141663  0.30068183    -0.83200
O1193       O  0.85621554  0.66231590  0.19553035    -0.82700
C1194       C  0.69394202  0.53426764  0.32680480     0.96700
O1195       O  0.71842390  0.58344306  0.31333575    -0.71800
O1196       O  0.79858882  0.67286055  0.27671504    -0.75400
Al1197     Al  0.74676225  0.60887187  0.24458579     1.49000
C1198       C  0.83563403  0.68084004  0.30555527     0.91900
O1199       O  0.85789183  0.56302564  0.29281206    -0.81600
O1200       O  0.79161242  0.49378850  0.19974442    -0.75200
Al1201     Al  0.85087657  0.60962280  0.24452313     1.90100
O1202       O  0.77874569  0.49574910  0.30685662    -0.74300
O1203       O  0.70372495  0.49491337  0.18766636    -0.74100
O1204       O  0.69469899  0.49857098  0.29784475    -0.79800
O1205       O  0.68366475  0.55472002  0.21180733    -0.78000
O1206       O  0.78112155  0.57296680  0.24543649    -1.14100
O1207       O  0.77452852  0.63709455  0.17658183    -0.73300
C1208       C  0.82302024  0.66341450  0.16579856     0.97400
C1209       C  0.82614111  0.52073402  0.31809235     0.93800
Al1210     Al  0.74512436  0.50150524  0.24769148     1.55600
O1211       O  0.85448977  0.65056350  0.30356063    -0.77900
C1212       C  0.67526588  0.51541048  0.18343778     0.98000
C1213       C  0.83261007  0.52605644  0.17346407     0.92900
O1214       O  0.85794807  0.57492378  0.18511265    -0.83200
C1215       C  0.76761907  0.82186082  0.14389702    -0.07000
C1216       C  0.75164968  0.80253875  0.09342882    -0.18200
C1217       C  0.78660228  0.79512203  0.06251848     0.10200
C1218       C  0.84098814  0.83969094  0.05780553    -0.07000
C1219       C  0.85674146  0.86428617  0.10869262    -0.18200
C1220       C  0.82177507  0.85349160  0.15206689     0.10200
S1221       S  0.76419695  0.72608824  0.58285555    -0.33200
S1222       S  0.84793790  0.88724499  0.21335355    -0.33200
H1223       H  0.81210008  0.90498705  0.21989226     0.28200
H1224       H  0.76786122  0.73233015  0.63783729     0.28200
H1225       H  0.70999768  0.77666059  0.08700211     0.18800
H1226       H  0.89344632  0.89867843  0.11277115     0.18800
C1227       C  0.75221382  0.80508558  0.37295300    -0.07000
C1228       C  0.80407352  0.82765783  0.35911655    -0.18200
C1229       C  0.84371001  0.85016852  0.39631901     0.10200
C1230       C  0.83402602  0.84728144  0.45327995    -0.07000
C1231       C  0.77987111  0.83032120  0.46301065    -0.18200
C1232       C  0.73962035  0.80646529  0.42591847     0.10200
S1233       S  0.90381720  0.88112619  0.36249914    -0.33200
S1234       S  0.67281191  0.77706275  0.44965851    -0.33200
H1235       H  0.64963435  0.74003438  0.40861277     0.29400
H1236       H  0.92588920  0.90001383  0.41105006     0.28200
H1237       H  0.81394368  0.82914131  0.31748169     0.18800
H1238       H  0.76623668  0.83743569  0.49891132     0.18800
C1239       C  0.87939479  0.95633233  0.44868951    -0.07000
C1240       C  0.90657201  0.48188348  0.40158333    -0.18200
C1241       C  0.89352857  0.50742835  0.36323357     0.10200
C1242       C  0.84400832  0.49928989  0.36126800    -0.07000
C1243       C  0.80939258  0.96663110  0.39984398    -0.18200
C1244       C  0.82495195  0.94852174  0.44431357     0.10200
S1245       S  0.94022028  0.54480477  0.31305867    -0.33200
S1246       S  0.77004284  0.92957096  0.48987182    -0.33200
H1247       H  0.72976102  0.89501211  0.45651028     0.28200
H1248       H  0.94614144  0.59392475  0.33066362     0.28200
H1249       H  0.93480842  0.47589962  0.38731219     0.18800
H1250       H  0.77025059  0.96018527  0.39694984     0.18800
C1251       C  0.88724485  0.96673442  0.04202003    -0.07000
C1252       C  0.83816578  0.93669164  0.06780403    -0.18200
C1253       C  0.81844575  0.95547042  0.10752360     0.10200
C1254       C  0.85050079  0.50651387  0.12783192    -0.07000
C1255       C  0.89648283  0.54038122  0.09829154    -0.18200
C1256       C  0.90304435  0.52307625  0.04787359     0.10200
S1257       S  0.74963037  0.91705535  0.12266792    -0.33200
S1258       S  0.87653520  0.55369210  0.00470040    -0.33200
H1259       H  0.90351290  0.55603518  0.95844602     0.28200
H1260       H  0.74195743  0.96021806  0.11047726     0.28200
H1261       H  0.81076845  0.89865921  0.05382230     0.18800
H1262       H  0.91812825  0.58308398  0.10701025     0.18800
C1263       C  0.55161021  0.60334716  0.13175671    -0.07000
C1264       C  0.58072043  0.61305317  0.08567646    -0.18200
C1265       C  0.56302956  0.57745085  0.04241239     0.10200
C1266       C  0.51155797  0.52498093  0.04470201    -0.07000
C1267       C  0.48734194  0.51613463  0.09483315    -0.18200
C1268       C  0.50497996  0.55332519  0.13626063     0.10200
S1269       S  0.61090446  0.61211001  0.98772752    -0.33200
S1270       S  0.96460095  0.53275784  0.19425940    -0.33200
H1271       H  0.50466203  0.56684787  0.22752787     0.28200
H1272       H  0.60199029  0.56864670  0.45677468     0.28200
H1273       H  0.61762608  0.65097409  0.08258743     0.18800
H1274       H  0.95220032  0.47964062  0.10306417     0.18800
C1275       C  0.55154715  0.60229010  0.36297036    -0.07000
C1276       C  0.53048771  0.61446840  0.40608711    -0.18200
C1277       C  0.50649340  0.57838866  0.44939218     0.10200
C1278       C  0.50354105  0.52510402  0.45073194    -0.07000
C1279       C  0.51991757  0.51492241  0.40251828    -0.18200
C1280       C  0.54293477  0.55050702  0.35939303     0.10200
S1281       S  0.49758994  0.61532305  0.00259016    -0.33200
S1282       S  0.54718093  0.52454639  0.29594710    -0.33200
H1283       H  0.59731061  0.56784416  0.28279066     0.28200
H1284       H  0.47938886  0.64225180  0.97095589     0.28200
H1285       H  0.53549556  0.65451600  0.40663386     0.18800
H1286       H  0.50133825  0.47423864  0.39469711     0.18800
C1287       C  0.63500874  0.49743050  0.14206140    -0.07000
C1288       C  0.58275366  0.95913517  0.15212178    -0.18200
C1289       C  0.54400179  0.94569747  0.11320177     0.10200
C1290       C  0.55650485  0.96423475  0.05830983    -0.07000
C1291       C  0.60616175  0.51273637  0.05916429    -0.18200
C1292       C  0.64566904  0.52656652  0.09544311     0.10200
S1293       S  0.48135847  0.91448024  0.14211623    -0.33200
S1294       S  0.70927666  0.58312775  0.07912938    -0.33200
H1295       H  0.73691596  0.55936432  0.09883055     0.28200
H1296       H  0.46527991  0.91264336  0.09052418     0.28200
H1297       H  0.57145501  0.94195756  0.19158322     0.18800
H1298       H  0.61938122  0.53992308  0.02785518     0.18800
C1299       C  0.65616284  0.51597522  0.37128453    -0.07000
C1300       C  0.60633092  0.48067846  0.35773329    -0.18200
C1301       C  0.56596740  0.95336225  0.39482594     0.10200
C1302       C  0.56937253  0.96387923  0.45219499    -0.07000
C1303       C  0.62561542  0.99021419  0.46155406    -0.18200
C1304       C  0.66727067  0.51918103  0.42460629     0.10200
S1305       S  0.51528596  0.40376268  0.35817450    -0.33200
S1306       S  0.73342943  0.54917844  0.44716933    -0.33200
H1307       H  0.75823679  0.58363469  0.40361450     0.28200
H1308       H  0.49046597  0.89458751  0.40636639     0.28200
H1309       H  0.59981573  0.47171414  0.31584874     0.18800
H1310       H  0.63983166  0.98130496  0.49645348     0.18800
C1311       C  0.51541869  0.84001451  0.46409134    -0.07000
C1312       C  0.56823922  0.86765820  0.44449729    -0.18200
C1313       C  0.58742670  0.85285267  0.40109638     0.10200
C1314       C  0.55548923  0.80307117  0.37768435    -0.07000
C1315       C  0.51066369  0.76691273  0.40681968    -0.18200
C1316       C  0.49808242  0.78353420  0.45472882     0.10200
S1317       S  0.65513138  0.89730327  0.38267277    -0.33200
S1318       S  0.00289025  0.74430879  0.50473569    -0.33200
H1319       H  0.96469114  0.75374081  0.52151404     0.28200
H1320       H  0.66677832  0.85651835  0.38949214     0.28200
H1321       H  0.59879952  0.90015031  0.46234835     0.18800
H1322       H  0.49056803  0.72439522  0.39724238     0.18800
C1323       C  0.56861146  0.83415383  0.14594497    -0.07000
C1324       C  0.51953405  0.82932417  0.15333464    -0.18200
C1325       C  0.48820168  0.81533512  0.10811327     0.10200
C1326       C  0.51098152  0.84792662  0.05884428    -0.07000
C1327       C  0.56668115  0.86901547  0.06027846    -0.18200
C1328       C  0.59094859  0.85135378  0.09541734     0.10200
S1329       S  0.96547202  0.74300777  0.12218984    -0.33200
S1330       S  0.64102819  0.84081164  0.06804003    -0.33200
H1331       H  0.62805947  0.79452024  0.09828578     0.28200
H1332       H  0.93107833  0.70834256  0.08593957     0.28200
H1333       H  0.50105597  0.81777261  0.19231478     0.18800
H1334       H  0.59377353  0.90310348  0.03818342     0.18800
C1335       C  0.89109263  0.79220606  0.43856382    -0.07000
C1336       C  0.92248510  0.79268282  0.39543157    -0.18200
C1337       C  0.90675519  0.76140678  0.34980363     0.10200
C1338       C  0.85468276  0.72397701  0.34391355    -0.07000
C1339       C  0.81964502  0.72238629  0.38041369    -0.18200
C1340       C  0.83592482  0.75158748  0.42743923     0.10200
S1341       S  0.95567962  0.77337626  0.29947766    -0.33200
S1342       S  0.77994764  0.72512580  0.46904576    -0.33200
H1343       H  0.76368854  0.67017685  0.96267351     0.28200
H1344       H  0.92338337  0.74067472  0.25956520     0.28200
H1345       H  0.96126078  0.81569821  0.39430572     0.18800
H1346       H  0.77854154  0.69346311  0.37406776     0.18800
C1347       C  0.89069248  0.77806486  0.03525338    -0.07000
C1348       C  0.89210000  0.79104553  0.08804510    -0.18200
C1349       C  0.86920728  0.75572243  0.13029685     0.10200
C1350       C  0.84272099  0.70072088  0.12118366    -0.07000
C1351       C  0.84106295  0.68265963  0.06984104    -0.18200
C1352       C  0.86735738  0.71948910  0.02736303     0.10200
S1353       S  0.87689098  0.78363025  0.19532629    -0.33200
S1354       S  0.87799559  0.68678566  0.47088548    -0.33200
H1355       H  0.83553730  0.63443363  0.47980011     0.28200
H1356       H  0.82426089  0.74990631  0.21051383     0.28200
H1357       H  0.91454780  0.83141739  0.09699224     0.18800
H1358       H  0.82434215  0.63974135  0.06450143     0.18800
C1359       C  0.91447038  0.82905738  0.49376391    -0.03400
C1360       C  0.48740227  0.86533213  0.50504461    -0.03400
C1361       C  0.52073874  0.94093627  0.50178177    -0.03400
C1362       C  0.48365861  0.47865049  0.99809401    -0.03400
C1363       C  0.90931989  0.94053085  0.49776156    -0.03400
C1364       C  0.87803811  0.86597559  0.50154149    -0.03400
O1365       O  0.68917439  0.81131389  0.82278909    -0.82700
C1366       C  0.57203118  0.64540220  0.67419538     0.96700
O1367       O  0.61109956  0.65309803  0.70035091    -0.71800
O1368       O  0.69797021  0.74804192  0.68914138    -0.75400
Al1369     Al  0.65793703  0.70810415  0.74873637     1.49000
C1370       C  0.72729744  0.79870656  0.68634516     0.91900
O1371       O  0.63415433  0.82923257  0.69523891    -0.81600
O1372       O  0.54826777  0.73806596  0.81488213    -0.75200
Al1373     Al  0.66025916  0.81631381  0.75841872     1.90100
O1374       O  0.55224004  0.76502369  0.70820020    -0.74300
O1375       O  0.54353185  0.64946803  0.79112652    -0.74100
O1376       O  0.55042302  0.67273879  0.68423285    -0.79800
O1377       O  0.62204215  0.66533044  0.80888407    -0.78000
O1378       O  0.62404454  0.74441873  0.75141825    -1.14100
O1379       O  0.71215862  0.75380505  0.79669468    -0.73300
C1380       C  0.71473129  0.78802027  0.82953923     0.97400
C1381       C  0.58627875  0.80845929  0.68516298     0.93800
Al1382     Al  0.55448173  0.70945848  0.74938248     1.55600
O1383       O  0.72088016  0.82879031  0.71781092    -0.77900
C1384       C  0.57366920  0.64103186  0.81861026     0.98000
C1385       C  0.57181877  0.78653187  0.82874880     0.92900
O1386       O  0.60922138  0.82141847  0.80068147    -0.83200
O1387       O  0.85621814  0.66231384  0.69553004    -0.82700
C1388       C  0.69394485  0.53426720  0.82680626     0.96700
O1389       O  0.71842766  0.58344289  0.81333777    -0.71800
O1390       O  0.79859248  0.67286093  0.77671548    -0.75400
Al1391     Al  0.74676524  0.60887171  0.74458727     1.49000
C1392       C  0.83563706  0.68083987  0.80555638     0.91900
O1393       O  0.85789239  0.56302491  0.79281381    -0.81600
O1394       O  0.79161213  0.49378734  0.69974324    -0.75200
Al1395     Al  0.85087888  0.60962154  0.74452414     1.90100
O1396       O  0.77874660  0.49574628  0.80685466    -0.74300
O1397       O  0.70372553  0.49491374  0.68766717    -0.74100
O1398       O  0.69470115  0.49857058  0.79784559    -0.79800
O1399       O  0.68366628  0.55472031  0.71181000    -0.78000
O1400       O  0.78112385  0.57296604  0.74543723    -1.14100
O1401       O  0.77453097  0.63709377  0.67658267    -0.73300
C1402       C  0.82302272  0.66341247  0.66579841     0.97400
C1403       C  0.82614139  0.52073221  0.81809227     0.93800
Al1404     Al  0.74512542  0.50150437  0.74769116     1.55600
O1405       O  0.85449276  0.65056336  0.80356141    -0.77900
C1406       C  0.67526612  0.51541043  0.68344025     0.98000
C1407       C  0.83261116  0.52605454  0.67346449     0.92900
O1408       O  0.85795067  0.57492141  0.68511450    -0.83200
C1409       C  0.76762112  0.82185601  0.64389728    -0.07000
C1410       C  0.75165073  0.80253365  0.59342930    -0.18200
C1411       C  0.78660314  0.79511773  0.56251778     0.10200
C1412       C  0.84098874  0.83968772  0.55780370    -0.07000
C1413       C  0.85674244  0.86428326  0.60869013    -0.18200
C1414       C  0.82177739  0.85348813  0.65206551     0.10200
S1415       S  0.76419522  0.72609248  0.08285556    -0.33200
S1416       S  0.84794272  0.88724281  0.71335096    -0.33200
H1417       H  0.81210385  0.90498302  0.71989312     0.28200
H1418       H  0.76786043  0.73233468  0.13783722     0.28200
H1419       H  0.70999852  0.77665479  0.58700344     0.18800
H1420       H  0.89344688  0.89867643  0.61276711     0.18800
C1421       C  0.75221495  0.80508731  0.87295409    -0.07000
C1422       C  0.80407478  0.82765929  0.85911789    -0.18200
C1423       C  0.84371095  0.85017058  0.89632070     0.10200
C1424       C  0.83402641  0.84728418  0.95328146    -0.07000
C1425       C  0.77987188  0.83032550  0.96301138    -0.18200
C1426       C  0.73962133  0.80646885  0.92591926     0.10200
S1427       S  0.90381847  0.88112869  0.86250154    -0.33200
S1428       S  0.67281301  0.77706708  0.94965934    -0.33200
H1429       H  0.64963515  0.74003964  0.90861300     0.29400
H1430       H  0.92589000  0.90001453  0.91105305     0.28200
H1431       H  0.81394520  0.82914248  0.81748328     0.18800
H1432       H  0.76623745  0.83744096  0.99891136     0.18800
C1433       C  0.87939339  0.95633434  0.94869299    -0.07000
C1434       C  0.90657262  0.48188484  0.90158480    -0.18200
C1435       C  0.89352865  0.50742814  0.86323406     0.10200
C1436       C  0.84400824  0.49928835  0.86126777    -0.07000
C1437       C  0.80939255  0.96663500  0.89984749    -0.18200
C1438       C  0.82495111  0.94852525  0.94431730     0.10200
S1439       S  0.94021932  0.54480209  0.81305739    -0.33200
S1440       S  0.77004127  0.92957504  0.98987461    -0.33200
H1441       H  0.72976044  0.89501516  0.95651273     0.28200
H1442       H  0.94614250  0.59392309  0.83066177     0.28200
H1443       H  0.93480947  0.47590180  0.88731414     0.18800
H1444       H  0.77025093  0.96019125  0.89695352     0.18800
C1445       C  0.88724474  0.96673248  0.54201719    -0.07000
C1446       C  0.83816670  0.93668909  0.56780295    -0.18200
C1447       C  0.81844673  0.95546745  0.60752293     0.10200
C1448       C  0.85050164  0.50651163  0.62783247    -0.07000
C1449       C  0.89648372  0.54037874  0.59829202    -0.18200
C1450       C  0.90304491  0.52307423  0.54787368     0.10200
S1451       S  0.74963245  0.91704871  0.62267112    -0.33200
S1452       S  0.87653640  0.55369095  0.50470097    -0.33200
H1453       H  0.90351469  0.55603472  0.45844674     0.28200
H1454       H  0.74195447  0.96020800  0.61048022     0.28200
H1455       H  0.81076916  0.89865587  0.55382186     0.18800
H1456       H  0.91812933  0.58308155  0.60701077     0.18800
C1457       C  0.55161301  0.60334648  0.63175639    -0.07000
C1458       C  0.58072335  0.61305197  0.58567583    -0.18200
C1459       C  0.56303141  0.57744899  0.54241178     0.10200
C1460       C  0.51155890  0.52497979  0.54470137    -0.07000
C1461       C  0.48734300  0.51613422  0.59483256    -0.18200
C1462       C  0.50498250  0.55332447  0.63626034     0.10200
S1463       S  0.61090607  0.61210656  0.48772648    -0.33200
S1464       S  0.96460516  0.53275575  0.69426025    -0.33200
H1465       H  0.50466605  0.56684655  0.72752854     0.28200
H1466       H  0.60199162  0.56865121  0.95677518     0.28200
H1467       H  0.61762846  0.65097246  0.58258622     0.18800
H1468       H  0.95220092  0.47964076  0.60306388     0.18800
C1469       C  0.55154421  0.60229017  0.86297052    -0.07000
C1470       C  0.53048355  0.61446808  0.90608649    -0.18200
C1471       C  0.50649110  0.57838917  0.94939239     0.10200
C1472       C  0.50354090  0.52510537  0.95073308    -0.07000
C1473       C  0.51991910  0.51492430  0.90252039    -0.18200
C1474       C  0.54293512  0.55050813  0.85939483     0.10200
S1475       S  0.49759159  0.61532161  0.50259033    -0.33200
S1476       S  0.54718367  0.52454706  0.79595020    -0.33200
H1477       H  0.59731315  0.56784558  0.78279469     0.28200
H1478       H  0.47939197  0.64225137  0.47095558     0.28200
H1479       H  0.53548995  0.65451497  0.90663222     0.18800
H1480       H  0.50134059  0.47424069  0.89469975     0.18800
C1481       C  0.63500892  0.49743091  0.64206384    -0.07000
C1482       C  0.58275302  0.95913841  0.65212415    -0.18200
C1483       C  0.54400220  0.94569939  0.61320246     0.10200
C1484       C  0.55650652  0.96423439  0.55830965    -0.07000
C1485       C  0.60616498  0.51273548  0.55916433    -0.18200
C1486       C  0.64567181  0.52656396  0.59544358     0.10200
S1487       S  0.48135804  0.91448060  0.64211513    -0.33200
S1488       S  0.70928282  0.58311977  0.57912875    -0.33200
H1489       H  0.73691773  0.55935248  0.59883251     0.28200
H1490       H  0.46528047  0.91264171  0.59052235     0.28200
H1491       H  0.57145314  0.94196312  0.69158650     0.18800
H1492       H  0.61938682  0.53992322  0.52785593     0.18800
C1493       C  0.65616520  0.51597474  0.87128582    -0.07000
C1494       C  0.60633332  0.48067808  0.85773440    -0.18200
C1495       C  0.56596838  0.95336474  0.89482699     0.10200
C1496       C  0.56937236  0.96388057  0.95219620    -0.07000
C1497       C  0.62561489  0.99021501  0.96155670    -0.18200
C1498       C  0.66727218  0.51918057  0.92460779     0.10200
S1499       S  0.51528696  0.40376473  0.85817423    -0.33200
S1500       S  0.73343061  0.54917480  0.94717095    -0.33200
H1501       H  0.75823843  0.58363468  0.90361848     0.28200
H1502       H  0.49046801  0.89459092  0.90636664     0.28200
H1503       H  0.59981868  0.47171286  0.81584975     0.18800
H1504       H  0.63982954  0.98130591  0.99645766     0.18800
C1505       C  0.51541820  0.84001573  0.96409135    -0.07000
C1506       C  0.56823907  0.86765944  0.94449815    -0.18200
C1507       C  0.58742735  0.85285373  0.90109764     0.10200
C1508       C  0.55548994  0.80307299  0.87768388    -0.07000
C1509       C  0.51066328  0.76691495  0.90681821    -0.18200
C1510       C  0.49808188  0.78353559  0.95472790     0.10200
S1511       S  0.65513286  0.89730299  0.88267707    -0.33200
S1512       S  0.00289148  0.74431054  0.00473409    -0.33200
H1513       H  0.96469160  0.75374129  0.02151285     0.28200
H1514       H  0.66677730  0.85651583  0.88949154     0.28200
H1515       H  0.59879870  0.90015139  0.96234981     0.18800
H1516       H  0.49056697  0.72439725  0.89724021     0.18800
C1517       C  0.56861580  0.83415583  0.64594284    -0.07000
C1518       C  0.51953906  0.82932732  0.65333424    -0.18200
C1519       C  0.48820499  0.81533738  0.60811401     0.10200
C1520       C  0.51098354  0.84792734  0.55884389    -0.07000
C1521       C  0.56668335  0.86901710  0.56027699    -0.18200
C1522       C  0.59095184  0.85135587  0.59541470     0.10200
S1523       S  0.96547441  0.74301025  0.62219249    -0.33200
S1524       S  0.64103290  0.84081722  0.56803570    -0.33200
H1525       H  0.62806821  0.79452753  0.59828235     0.28200
H1526       H  0.93108187  0.70834369  0.58594220     0.28200
H1527       H  0.50106268  0.81777727  0.69231513     0.18800
H1528       H  0.59377511  0.90310500  0.53818173     0.18800
C1529       C  0.89109184  0.79220725  0.93856496    -0.07000
C1530       C  0.92248476  0.79268517  0.89543273    -0.18200
C1531       C  0.90675605  0.76140889  0.84980492     0.10200
C1532       C  0.85468428  0.72397571  0.84391592    -0.07000
C1533       C  0.81964557  0.72238318  0.88041628    -0.18200
C1534       C  0.83592442  0.75158761  0.92744034     0.10200
S1535       S  0.95568122  0.77338412  0.79947755    -0.33200
S1536       S  0.77994658  0.72512958  0.96904550    -0.33200
H1537       H  0.76369027  0.67017377  0.46266924     0.28200
H1538       H  0.92338683  0.74067323  0.75956876     0.28200
H1539       H  0.96126002  0.81570227  0.89430697     0.18800
H1540       H  0.77854271  0.69345759  0.87407132     0.18800
C1541       C  0.89069360  0.77806289  0.53525247    -0.07000
C1542       C  0.89210172  0.79104342  0.58804449    -0.18200
C1543       C  0.86920911  0.75572004  0.63029620     0.10200
C1544       C  0.84272343  0.70071839  0.62118311    -0.07000
C1545       C  0.84106605  0.68265699  0.56984053    -0.18200
C1546       C  0.86735891  0.71948697  0.52736220     0.10200
S1547       S  0.87689301  0.78362735  0.69532607    -0.33200
S1548       S  0.87799662  0.68678752  0.97088797    -0.33200
H1549       H  0.83553717  0.63443581  0.97980085     0.28200
H1550       H  0.82426242  0.74990489  0.71051273     0.28200
H1551       H  0.91454956  0.83141539  0.59699221     0.18800
H1552       H  0.82434634  0.63973925  0.56450100     0.18800
loop_ 
_geom_bond_atom_site_label_1 
_geom_bond_atom_site_label_2 
_geom_bond_distance 
_geom_bond_site_symmetry_2 
_ccdc_geom_bond_type 
C1            C6   1.873   1_556  S
C1          C778   1.895   1_556  S
C1          C183   1.635   1_556  S
C1          C365   1.691       .  S
C2            C3   1.878   1_655  S
C2          C777   1.895   1_554  S
C2          C162   1.730   1_655  S
C2          C341   1.702   1_654  S
C3          C586   1.904   1_454  S
C3          C126   1.723       .  S
C3          C332   1.753   1_554  S
C4          C585   1.904   1_655  S
C4         C1363   1.903       .  S
C4          C114   1.657   1_665  S
C4          C296   1.667   1_665  S
C5            C6   1.856   1_556  S
C5         C1362   1.903       .  S
C5           C87   1.656   1_556  S
C5          C269   1.731       .  S
C6           C54   1.708       .  S
C6          C260   1.686   1_554  S
O7           C22   1.257       .  A
O7          Al15   1.897       .  S
C8           O18   1.268       .  A
C8            O9   1.266       .  A
C8           C99   1.508       .  S
O9          Al11   1.943       .  S
O10          C12   1.263       .  A
O10         Al11   1.887       .  S
Al11         O19   1.893       .  S
Al11         O21   1.930       .  S
Al11         O20   1.785       .  S
C12          O25   1.261       .  A
C12          C51   1.477       .  S
O13          C23   1.263       .  A
O13         Al15   1.909       .  S
O14          C27   1.256       .  A
O14         Al24   1.904       .  S
Al15         O28   1.909       .  S
Al15         O25   1.927       .  S
Al15         O20   1.793       .  S
O16          C23   1.272       .  A
O16         Al24   1.939       .  S
O17          C26   1.261       .  A
O17         Al24   1.902       .  S
O18         Al24   1.936       .  S
O19          C26   1.258       .  A
O20         Al24   1.783       .  S
O21          C22   1.265       .  A
C22          C63   1.478       .  S
C23         C159   1.491       .  S
C26         C111   1.472       .  S
C27          O28   1.259       .  A
C27         C150   1.490       .  S
O29          C44   1.266       .  A
O29         Al37   1.901       .  S
C30          O40   1.274   1_545  A
C30          O31   1.262       .  A
C30         C135   1.471       .  S
O31         Al33   1.898       .  S
O32          C34   1.254       .  A
O32         Al33   1.895       .  S
Al33         O41   1.930       .  S
Al33         O43   1.892       .  S
Al33         O42   1.786       .  S
C34          O47   1.255       .  A
C34         C174   1.455       .  S
O35          C45   1.261       .  A
O35         Al37   1.906       .  S
O36          C49   1.269   1_565  A
O36         Al46   1.922   1_565  S
Al37         O50   1.877       .  S
Al37         O47   1.878       .  S
Al37         O42   1.785       .  S
O38          C45   1.252   1_565  A
O38         Al46   1.871   1_565  S
O39          C48   1.260   1_565  A
O39         Al46   1.923   1_565  S
O40         Al46   1.918   1_565  S
O41          C48   1.258       .  A
O42         Al46   1.771       .  S
O43          C44   1.265       .  A
C44         C186   1.452       .  S
C45          C78   1.488   1_545  S
C48         C123   1.489   1_545  S
C49          O50   1.251       .  A
C49          C90   1.492       .  S
C51          C52   1.389       .  A
C51          C56   1.409       .  A
C52          C53   1.393       .  A
C52          H61   1.088       .  S
C53          C54   1.468       .  A
C53         S251   1.816       .  S
C54          C55   1.440       .  A
C55          C56   1.421       .  A
C55          H62   1.042       .  S
C56          S58   1.801       .  S
S57         C247   1.816       .  S
S57          H60   1.406       .  S
S58          H59   1.405       .  S
C63          C64   1.372       .  A
C63          C68   1.395       .  A
C64          C65   1.401       .  A
C64          H73   1.086       .  S
C65          C66   1.463       .  A
C65          S69   1.745       .  S
C66         C200   1.686       .  S
C66          C67   1.441       .  A
C67          C68   1.412       .  A
C67          H74   1.053       .  S
C68          S70   1.808       .  S
S69          H72   1.382       .  S
S70          H71   1.406       .  S
C75         C199   1.731       .  S
C75          C80   1.523       .  A
C75         C464   1.407       .  A
C76          C77   1.392   1_565  A
C76         C463   1.407       .  A
C76          H85   1.001       .  S
C77          C78   1.370   1_545  A
C77          S81   1.766       .  S
C78         C467   1.370       .  A
C79          C80   1.421       .  A
C79         C466   1.370       .  A
C79          H86   1.085       .  S
C80          S82   1.823       .  S
S81          H84   1.408       .  S
S82          H83   1.402       .  S
C87          C88   1.409       .  A
C87         C480   1.450       .  A
C88          C89   1.399       .  A
C88          H97   1.045       .  S
C89         C478   1.389       .  A
C89          S93   1.796       .  S
C90          C91   1.409       .  A
C90         C477   1.389   1_545  A
C91          C92   1.420       .  A
C91          H98   1.084       .  S
C92         C475   1.450   1_545  A
C92          S94   1.825       .  S
S93          H96   1.408       .  S
S94          H95   1.392   1_554  S
C99         C100   1.383       .  A
C99         C104   1.404       .  A
C100        C101   1.417       .  A
C100        H109   1.086       .  S
C101        C102   1.507       .  A
C101        S105   1.851   1_554  S
C102        C198   1.667   1_444  S
C102        C103   1.408   1_455  A
C103        C104   1.407   1_655  A
C103        H886   1.055   1_545  S
C104        S882   1.780   1_455  S
S105        H302   1.388       .  S
S106        C880   1.780       .  S
S106        H883   1.394       .  S
H107        S882   1.394   1_455  S
H108        S299   1.388       .  S
H110        C879   1.055   1_565  S
C111        C112   1.383       .  A
C111        C116   1.382       .  A
C112        C113   1.417       .  A
C112        H121   1.085       .  S
C113        C114   1.492       .  A
C113        S311   1.817   1_455  S
C114        C115   1.395       .  A
C115        C116   1.404       .  A
C115        H122   1.031   1_545  S
C116        S118   1.805       .  S
S117        C307   1.817   1_654  S
S117        H120   1.406   1_554  S
S118        H119   1.406       .  S
C123        C128   1.384   1_565  A
C123        C512   1.391       .  A
C124        C125   1.428       .  A
C124        C511   1.391       .  A
C124        H133   1.085       .  S
C125        C126   1.463       .  A
C125        S129   1.750   1_455  S
C126        C515   1.426       .  A
C127        C128   1.396       .  A
C127        C514   1.426   1_545  A
C127        H134   1.035       .  S
C128        S130   1.798       .  S
S129        H132   1.393       .  S
S130        H131   1.407       .  S
C135        C136   1.354   1_545  A
C135        C140   1.390       .  A
C136        C525   1.393       .  A
C136        H145   1.091       .  S
C137        C138   1.482       .  A
C137        C524   1.393       .  A
C137        S529   1.743       .  S
C138        C197   1.752       .  S
C138        C139   1.467       .  A
C139        C528   1.419       .  A
C139        H146   1.073       .  S
C140        C527   1.419   1_545  A
C140        S142   1.804       .  S
S141        C525   1.743       .  S
S141        H532   1.371   1_455  S
S142        H143   1.404       .  S
H144        S529   1.370   1_655  S
C147        C196   1.702   1_455  S
C147        C148   1.430       .  A
C147        C152   1.456   1_455  A
C148        C149   1.396       .  A
C148        H157   1.028       .  S
C149        C150   1.395       .  A
C149        S153   1.803       .  S
C150        C151   1.399       .  A
C151        C152   1.420   1_455  A
C151        H158   1.085   1_455  S
C152        S930   1.752   1_655  S
S153        H156   1.395       .  S
S154        C928   1.752       .  S
S154        H155   1.358       .  S
C159        C160   1.403       .  A
C159        C164   1.401       .  A
C160        C161   1.415   1_455  A
C160        H169   1.088       .  S
C161        C162   1.490   1_655  A
C161        S941   1.865       .  S
C162        C163   1.446       .  A
C163        C164   1.403       .  A
C163        H170   1.051       .  S
C164        S166   1.794       .  S
S165        C937   1.865       .  S
S165        H168   1.373       .  S
S166        H167   1.406       .  S
C171        C195   1.691       .  S
C171        C172   1.421       .  A
C171        C176   1.484       .  A
C172        C173   1.401       .  A
C172        H181   0.995       .  S
C173        C174   1.375       .  A
C173        S177   1.814       .  S
C174        C175   1.365       .  A
C175        C176   1.405       .  A
C175        H182   1.088       .  S
C176        S178   1.763       .  S
S177        H180   1.397       .  S
S178        H373   1.410       .  S
H179        S372   1.410       .  S
C183        C184   1.387       .  A
C183        C188   1.477       .  A
C184        C185   1.383       .  A
C184        H193   1.032       .  S
C185        C186   1.386       .  A
C185        S189   1.803       .  S
C186        C187   1.396       .  A
C187        C188   1.421       .  A
C187        H194   1.082       .  S
C188        S384   1.826   1_554  S
S189        H192   1.404       .  S
S190        C382   1.826       .  S
S190        H191   1.403       .  S
C195        C972   1.895       .  S
C195        C200   1.873       .  S
C195        C377   1.635       .  S
C196        C971   1.895       .  S
C196        C197   1.878   1_655  S
C196        C356   1.730   1_655  S
C197        C392   1.904   1_455  S
C197        C320   1.723       .  S
C198        C391   1.904   1_656  S
C198       C1169   1.903       .  S
C198        C308   1.657   1_665  S
C199       C1168   1.903       .  S
C199        C200   1.856       .  S
C199        C281   1.656       .  S
C200        C248   1.708       .  S
O201        C216   1.257       .  A
O201       Al209   1.897       .  S
C202        O212   1.268       .  A
C202        O203   1.266       .  A
C202        C293   1.508       .  S
O203       Al205   1.943       .  S
O204        C206   1.263       .  A
O204       Al205   1.887       .  S
Al205       O213   1.893       .  S
Al205       O215   1.930       .  S
Al205       O214   1.785       .  S
C206        O219   1.261       .  A
C206        C245   1.477       .  S
O207        C217   1.263       .  A
O207       Al209   1.909       .  S
O208        C221   1.256       .  A
O208       Al218   1.904       .  S
Al209       O222   1.909       .  S
Al209       O219   1.927       .  S
Al209       O214   1.793       .  S
O210        C217   1.272       .  A
O210       Al218   1.939       .  S
O211        C220   1.261       .  A
O211       Al218   1.903       .  S
O212       Al218   1.936       .  S
O213        C220   1.258       .  A
O214       Al218   1.783       .  S
O215        C216   1.265       .  A
C216        C257   1.478       .  S
C217        C353   1.491       .  S
C220        C305   1.472       .  S
C221        O222   1.259       .  A
C221        C344   1.490       .  S
O223        C238   1.266       .  A
O223       Al231   1.901       .  S
C224        O234   1.274   1_545  A
C224        O225   1.262       .  A
C224        C329   1.471       .  S
O225       Al227   1.898       .  S
O226        C228   1.254       .  A
O226       Al227   1.895       .  S
Al227       O235   1.930       .  S
Al227       O237   1.892       .  S
Al227       O236   1.786       .  S
C228        O241   1.255       .  A
C228        C368   1.455       .  S
O229        C239   1.261       .  A
O229       Al231   1.906       .  S
O230        C243   1.269   1_565  A
O230       Al240   1.922   1_565  S
Al231       O244   1.877       .  S
Al231       O241   1.878       .  S
Al231       O236   1.785       .  S
O232        C239   1.252   1_565  A
O232       Al240   1.871   1_565  S
O233        C242   1.260   1_565  A
O233       Al240   1.923   1_565  S
O234       Al240   1.918   1_565  S
O235        C242   1.258       .  A
O236       Al240   1.771       .  S
O237        C238   1.265       .  A
C238        C380   1.452       .  S
C239        C272   1.488   1_545  S
C242        C317   1.489   1_545  S
C243        O244   1.251       .  A
C243        C284   1.492       .  S
C245        C246   1.389       .  A
C245        C250   1.409       .  A
C246        C247   1.393       .  A
C246        H255   1.088       .  S
C247        C248   1.468       .  A
C248        C249   1.440       .  A
C249        C250   1.421       .  A
C249        H256   1.042       .  S
C250        S252   1.801       .  S
S251        H254   1.406       .  S
S252        H253   1.405       .  S
C257        C258   1.372       .  A
C257        C262   1.395       .  A
C258        C259   1.401       .  A
C258        H267   1.086       .  S
C259        C260   1.462       .  A
C259        S263   1.745       .  S
C260        C261   1.441       .  A
C261        C262   1.412       .  A
C261        H268   1.053       .  S
C262        S264   1.808       .  S
S263        H266   1.382       .  S
S264        H265   1.406       .  S
C269        C658   1.407       .  A
C269        C274   1.523       .  A
C270        C657   1.407       .  A
C270        C271   1.392   1_565  A
C270        H279   1.001       .  S
C271        C272   1.370   1_545  A
C271        S275   1.766       .  S
C272        C661   1.370       .  A
C273        C660   1.370       .  A
C273        C274   1.421       .  A
C273        H280   1.085       .  S
C274        S276   1.823       .  S
S275        H278   1.408       .  S
S276        H277   1.402       .  S
C281        C282   1.409       .  A
C281        C674   1.450       .  A
C282        C283   1.399       .  A
C282        H291   1.045       .  S
C283        C672   1.389       .  A
C283        S287   1.796       .  S
C284        C671   1.389   1_545  A
C284        C285   1.409       .  A
C285        C286   1.420       .  A
C285        H292   1.084       .  S
C286        C669   1.450   1_545  A
C286        S288   1.825       .  S
S287        H290   1.408       .  S
S288        H289   1.392       .  S
C293        C294   1.383       .  A
C293        C298   1.404       .  A
C294        C295   1.417       .  A
C294        H303   1.086       .  S
C295        C296   1.507       .  A
C295        S299   1.851       .  S
C296        C297   1.408   1_455  A
C297        C298   1.407   1_655  A
C297       H1080   1.055   1_545  S
C298       S1076   1.780   1_455  S
S300       C1074   1.780       .  S
S300       H1077   1.394       .  S
H301       S1076   1.394   1_455  S
H304       C1073   1.055   1_565  S
C305        C306   1.383       .  A
C305        C310   1.382       .  A
C306        C307   1.417       .  A
C306        H315   1.085       .  S
C307        C308   1.492       .  A
C308        C309   1.395       .  A
C309        C310   1.404       .  A
C309        H316   1.031   1_545  S
C310        S312   1.805       .  S
S311        H314   1.406       .  S
S312        H313   1.406       .  S
C317        C706   1.391       .  A
C317        C322   1.384   1_565  A
C318        C705   1.391       .  A
C318        C319   1.428       .  A
C318        H327   1.085       .  S
C319        C320   1.463       .  A
C319        S323   1.750   1_455  S
C320        C709   1.426       .  A
C321        C708   1.426   1_545  A
C321        C322   1.396       .  A
C321        H328   1.035       .  S
C322        S324   1.798       .  S
S323        H326   1.393       .  S
S324        H325   1.407       .  S
C329        C330   1.354   1_545  A
C329        C334   1.390       .  A
C330        C719   1.393       .  A
C330        H339   1.091       .  S
C331        C718   1.393       .  A
C331        C332   1.482       .  A
C331        S723   1.743       .  S
C332        C333   1.467       .  A
C333        C722   1.419       .  A
C333        H340   1.073       .  S
C334        C721   1.419   1_545  A
C334        S336   1.804       .  S
S335        C719   1.743       .  S
S335        H726   1.370   1_455  S
S336        H337   1.404       .  S
H338        S723   1.370   1_655  S
C341        C342   1.430       .  A
C341        C346   1.456   1_455  A
C342        C343   1.396       .  A
C342        H351   1.028       .  S
C343        C344   1.395       .  A
C343        S347   1.803       .  S
C344        C345   1.399       .  A
C345        C346   1.420   1_455  A
C345        H352   1.085   1_455  S
C346       S1124   1.752   1_656  S
S347        H350   1.395       .  S
S348       C1122   1.752   1_554  S
S348        H349   1.358       .  S
C353        C354   1.403       .  A
C353        C358   1.401       .  A
C354        C355   1.415   1_455  A
C354        H363   1.088       .  S
C355        C356   1.490   1_655  A
C355       S1135   1.865       .  S
C356        C357   1.446       .  A
C357        C358   1.403       .  A
C357        H364   1.051       .  S
C358        S360   1.794       .  S
S359       C1131   1.865       .  S
S359        H362   1.373       .  S
S360        H361   1.406       .  S
C365        C366   1.421       .  A
C365        C370   1.484       .  A
C366        C367   1.401       .  A
C366        H375   0.995       .  S
C367        C368   1.375       .  A
C367        S371   1.814       .  S
C368        C369   1.365       .  A
C369        C370   1.405       .  A
C369        H376   1.088       .  S
C370        S372   1.763       .  S
S371        H374   1.397       .  S
C377        C378   1.387       .  A
C377        C382   1.477       .  A
C378        C379   1.383       .  A
C378        H387   1.032       .  S
C379        C380   1.386       .  A
C379        S383   1.803       .  S
C380        C381   1.396       .  A
C381        C382   1.421       .  A
C381        H388   1.082       .  S
S383        H386   1.404       .  S
S384        H385   1.403       .  S
C389       C1166   1.895   1_556  S
C389        C394   1.873   1_556  S
C389        C753   1.691       .  S
C389        C571   1.635   1_556  S
C390       C1165   1.895   1_554  S
C390        C391   1.878   1_655  S
C390        C729   1.702   1_654  S
C390        C550   1.730   1_655  S
C391        C514   1.723       .  S
C391        C720   1.753   1_554  S
C392        C975   1.903       .  S
C392        C684   1.667   1_655  S
C392        C502   1.657   1_655  S
C393        C974   1.903       .  S
C393        C394   1.856   1_556  S
C393        C657   1.731       .  S
C393        C475   1.656   1_556  S
C394        C442   1.708       .  S
C394        C648   1.686   1_554  S
O395        C410   1.257       .  A
O395       Al403   1.897       .  S
C396        O406   1.268       .  A
C396        O397   1.266       .  A
C396        C487   1.508       .  S
O397       Al399   1.943       .  S
O398        C400   1.263       .  A
O398       Al399   1.887       .  S
Al399       O407   1.893       .  S
Al399       O409   1.930       .  S
Al399       O408   1.785       .  S
C400        O413   1.261       .  A
C400        C439   1.477       .  S
O401        C411   1.263       .  A
O401       Al403   1.909       .  S
O402        C415   1.256       .  A
O402       Al412   1.904       .  S
Al403       O416   1.909       .  S
Al403       O413   1.927       .  S
Al403       O408   1.793       .  S
O404        C411   1.272       .  A
O404       Al412   1.939       .  S
O405        C414   1.261       .  A
O405       Al412   1.903       .  S
O406       Al412   1.936       .  S
O407        C414   1.258       .  A
O408       Al412   1.783       .  S
O409        C410   1.265       .  A
C410        C451   1.478       .  S
C411        C547   1.491       .  S
C414        C499   1.472       .  S
C415        O416   1.259       .  A
C415        C538   1.490       .  S
O417        C432   1.266       .  A
O417       Al425   1.901       .  S
C418        O428   1.274       .  A
C418        O419   1.262       .  A
C418        C523   1.471       .  S
O419       Al421   1.898       .  S
O420        C422   1.254       .  A
O420       Al421   1.895       .  S
Al421       O429   1.930       .  S
Al421       O431   1.892       .  S
Al421       O430   1.786       .  S
C422        O435   1.255       .  A
C422        C562   1.455       .  S
O423        C433   1.261       .  A
O423       Al425   1.906       .  S
O424        C437   1.269       .  A
O424       Al434   1.922       .  S
Al425       O438   1.877       .  S
Al425       O435   1.878       .  S
Al425       O430   1.785       .  S
O426        C433   1.252       .  A
O426       Al434   1.871       .  S
O427        C436   1.260       .  A
O427       Al434   1.923       .  S
O428       Al434   1.918       .  S
O429        C436   1.258       .  A
O430       Al434   1.771       .  S
O431        C432   1.265       .  A
C432        C574   1.452       .  S
C433        C466   1.488       .  S
C436        C511   1.489       .  S
C437        O438   1.251       .  A
C437        C478   1.492       .  S
C439        C440   1.389       .  A
C439        C444   1.409       .  A
C440        C441   1.393       .  A
C440        H449   1.088       .  S
C441        C442   1.468       .  A
C441        S639   1.816       .  S
C442        C443   1.440       .  A
C443        C444   1.421       .  A
C443        H450   1.042       .  S
C444        S446   1.801       .  S
S445        C635   1.816       .  S
S445        H448   1.406       .  S
S446        H447   1.405       .  S
C451        C452   1.372       .  A
C451        C456   1.395       .  A
C452        C453   1.401       .  A
C452        H461   1.086       .  S
C453        C454   1.462       .  A
C453        S457   1.745       .  S
C454        C588   1.686       .  S
C454        C455   1.441       .  A
C455        C456   1.412       .  A
C455        H462   1.053       .  S
C456        S458   1.808       .  S
S457        H460   1.382       .  S
S458        H459   1.406       .  S
C463        C587   1.731       .  S
C463        C468   1.523       .  A
C464        C465   1.392       .  A
C464        H473   1.001       .  S
C465        C466   1.370       .  A
C465        S469   1.766       .  S
C467        C468   1.421       .  A
C467        H474   1.085       .  S
C468        S470   1.823       .  S
S469        H472   1.408       .  S
S470        H471   1.402       .  S
C475        C476   1.409       .  A
C476        C477   1.399       .  A
C476        H485   1.045       .  S
C477        S481   1.796       .  S
C478        C479   1.409       .  A
C479        C480   1.420       .  A
C479        H486   1.084       .  S
C480        S482   1.825       .  S
S481        H484   1.408       .  S
S482        H483   1.392   1_554  S
C487        C488   1.383       .  A
C487        C492   1.404       .  A
C488        C489   1.417       .  A
C488        H497   1.086       .  S
C489        C490   1.507       .  A
C489        S493   1.851   1_554  S
C490        C586   1.667   1_454  S
C490        C491   1.408   1_455  A
C491        C492   1.407   1_655  A
C491       H1274   1.055       .  S
C492       S1270   1.780   1_455  S
S493        H690   1.388       .  S
S494       C1268   1.780       .  S
S494       H1271   1.394       .  S
H495       S1270   1.394   1_455  S
H496        S687   1.388       .  S
H498       C1267   1.055       .  S
C499        C500   1.383       .  A
C499        C504   1.382       .  A
C500        C501   1.417       .  A
C500        H509   1.085       .  S
C501        C502   1.492       .  A
C501        S699   1.817   1_455  S
C502        C503   1.395       .  A
C503        C504   1.404       .  A
C503        H510   1.031       .  S
C504        S506   1.805       .  S
S505        C695   1.817   1_654  S
S505        H508   1.406   1_554  S
S506        H507   1.406       .  S
C511        C516   1.384       .  A
C512        C513   1.428       .  A
C512        H521   1.085       .  S
C513        C514   1.463       .  A
C513        S517   1.750   1_455  S
C515        C516   1.396       .  A
C515        H522   1.035       .  S
C516        S518   1.798       .  S
S517        H520   1.393       .  S
S518        H519   1.407       .  S
C523        C524   1.354       .  A
C523        C528   1.390       .  A
C524        H533   1.091       .  S
C525        C526   1.482       .  A
C526        C585   1.752       .  S
C526        C527   1.467       .  A
C527        H534   1.073       .  S
C528        S530   1.804       .  S
S530        H531   1.404       .  S
C535        C584   1.702   1_455  S
C535        C536   1.430       .  A
C535        C540   1.456   1_455  A
C536        C537   1.396       .  A
C536        H545   1.028       .  S
C537        C538   1.395       .  A
C537        S541   1.803       .  S
C538        C539   1.399       .  A
C539        C540   1.420   1_455  A
C539        H546   1.085   1_455  S
C540       S1318   1.752   1_655  S
S541        H544   1.395       .  S
S542       C1316   1.752       .  S
S542        H543   1.358       .  S
C547        C548   1.403       .  A
C547        C552   1.401       .  A
C548        C549   1.415   1_455  A
C548        H557   1.088       .  S
C549        C550   1.490   1_655  A
C549       S1329   1.865       .  S
C550        C551   1.446       .  A
C551        C552   1.403       .  A
C551        H558   1.051       .  S
C552        S554   1.794       .  S
S553       C1325   1.865       .  S
S553        H556   1.373       .  S
S554        H555   1.406       .  S
C559        C583   1.691       .  S
C559        C560   1.421       .  A
C559        C564   1.484       .  A
C560        C561   1.401       .  A
C560        H569   0.995       .  S
C561        C562   1.375       .  A
C561        S565   1.814       .  S
C562        C563   1.365       .  A
C563        C564   1.405       .  A
C563        H570   1.088       .  S
C564        S566   1.763       .  S
S565        H568   1.397       .  S
S566        H761   1.410       .  S
H567        S760   1.410       .  S
C571        C572   1.387       .  A
C571        C576   1.477       .  A
C572        C573   1.383       .  A
C572        H581   1.032       .  S
C573        C574   1.386       .  A
C573        S577   1.803       .  S
C574        C575   1.396       .  A
C575        C576   1.421       .  A
C575        H582   1.082       .  S
C576        S772   1.826   1_554  S
S577        H580   1.404       .  S
S578        C770   1.826       .  S
S578        H579   1.403       .  S
C583       C1360   1.895       .  S
C583        C588   1.873       .  S
C583        C765   1.635       .  S
C584       C1359   1.895       .  S
C584        C585   1.878   1_655  S
C584        C744   1.730   1_655  S
C585        C708   1.723       .  S
C586        C781   1.903       .  S
C586        C696   1.657   1_655  S
C587        C780   1.903       .  S
C587        C588   1.856       .  S
C587        C669   1.656       .  S
C588        C636   1.708       .  S
O589        C604   1.257       .  A
O589       Al597   1.897       .  S
C590        O600   1.268       .  A
C590        O591   1.266       .  A
C590        C681   1.508       .  S
O591       Al593   1.943       .  S
O592        C594   1.263       .  A
O592       Al593   1.887       .  S
Al593       O601   1.893       .  S
Al593       O603   1.930       .  S
Al593       O602   1.785       .  S
C594        O607   1.261       .  A
C594        C633   1.477       .  S
O595        C605   1.263       .  A
O595       Al597   1.909       .  S
O596        C609   1.256       .  A
O596       Al606   1.904       .  S
Al597       O610   1.909       .  S
Al597       O607   1.927       .  S
Al597       O602   1.793       .  S
O598        C605   1.272       .  A
O598       Al606   1.939       .  S
O599        C608   1.261       .  A
O599       Al606   1.903       .  S
O600       Al606   1.936       .  S
O601        C608   1.258       .  A
O602       Al606   1.783       .  S
O603        C604   1.265       .  A
C604        C645   1.478       .  S
C605        C741   1.491       .  S
C608        C693   1.472       .  S
C609        O610   1.259       .  A
C609        C732   1.490       .  S
O611        C626   1.266       .  A
O611       Al619   1.901       .  S
C612        O622   1.274       .  A
C612        O613   1.262       .  A
C612        C717   1.471       .  S
O613       Al615   1.898       .  S
O614        C616   1.254       .  A
O614       Al615   1.895       .  S
Al615       O623   1.930       .  S
Al615       O625   1.892       .  S
Al615       O624   1.786       .  S
C616        O629   1.255       .  A
C616        C756   1.455       .  S
O617        C627   1.261       .  A
O617       Al619   1.906       .  S
O618        C631   1.269       .  A
O618       Al628   1.922       .  S
Al619       O632   1.877       .  S
Al619       O629   1.878       .  S
Al619       O624   1.785       .  S
O620        C627   1.252       .  A
O620       Al628   1.871       .  S
O621        C630   1.260       .  A
O621       Al628   1.923       .  S
O622       Al628   1.918       .  S
O623        C630   1.258       .  A
O624       Al628   1.771       .  S
O625        C626   1.265       .  A
C626        C768   1.452       .  S
C627        C660   1.488       .  S
C630        C705   1.489       .  S
C631        O632   1.251       .  A
C631        C672   1.492       .  S
C633        C634   1.389       .  A
C633        C638   1.409       .  A
C634        C635   1.393       .  A
C634        H643   1.088       .  S
C635        C636   1.468       .  A
C636        C637   1.440       .  A
C637        C638   1.421       .  A
C637        H644   1.042       .  S
C638        S640   1.801       .  S
S639        H642   1.406       .  S
S640        H641   1.405       .  S
C645        C646   1.372       .  A
C645        C650   1.395       .  A
C646        C647   1.401       .  A
C646        H655   1.086       .  S
C647        C648   1.462       .  A
C647        S651   1.745       .  S
C648        C649   1.441       .  A
C649        C650   1.412       .  A
C649        H656   1.053       .  S
C650        S652   1.808       .  S
S651        H654   1.382       .  S
S652        H653   1.406       .  S
C657        C662   1.523       .  A
C658        C659   1.392       .  A
C658        H667   1.001       .  S
C659        C660   1.370       .  A
C659        S663   1.766       .  S
C661        C662   1.421       .  A
C661        H668   1.085       .  S
C662        S664   1.823       .  S
S663        H666   1.408       .  S
S664        H665   1.402       .  S
C669        C670   1.409       .  A
C670        C671   1.399       .  A
C670        H679   1.045       .  S
C671        S675   1.796       .  S
C672        C673   1.409       .  A
C673        C674   1.420       .  A
C673        H680   1.084       .  S
C674        S676   1.825       .  S
S675        H678   1.408       .  S
S676        H677   1.392       .  S
C681        C682   1.383       .  A
C681        C686   1.404       .  A
C682        C683   1.417       .  A
C682        H691   1.086       .  S
C683        C684   1.507       .  A
C683        S687   1.851       .  S
C684        C685   1.408   1_455  A
C685        C686   1.407   1_655  A
C685       H1468   1.055       .  S
C686       S1464   1.780   1_455  S
S688       C1462   1.780       .  S
S688       H1465   1.394       .  S
H689       S1464   1.394   1_455  S
H692       C1461   1.055       .  S
C693        C694   1.383       .  A
C693        C698   1.382       .  A
C694        C695   1.417       .  A
C694        H703   1.085       .  S
C695        C696   1.492       .  A
C696        C697   1.395       .  A
C697        C698   1.404       .  A
C697        H704   1.031       .  S
C698        S700   1.805       .  S
S699        H702   1.406       .  S
S700        H701   1.406       .  S
C705        C710   1.384       .  A
C706        C707   1.428       .  A
C706        H715   1.085       .  S
C707        C708   1.463       .  A
C707        S711   1.750   1_455  S
C709        C710   1.396       .  A
C709        H716   1.035       .  S
C710        S712   1.798       .  S
S711        H714   1.393       .  S
S712        H713   1.407       .  S
C717        C718   1.354       .  A
C717        C722   1.390       .  A
C718        H727   1.091       .  S
C719        C720   1.482       .  A
C720        C721   1.467       .  A
C721        H728   1.073       .  S
C722        S724   1.804       .  S
S724        H725   1.404       .  S
C729        C730   1.430       .  A
C729        C734   1.456   1_455  A
C730        C731   1.396       .  A
C730        H739   1.028       .  S
C731        C732   1.395       .  A
C731        S735   1.803       .  S
C732        C733   1.399       .  A
C733        C734   1.420   1_455  A
C733        H740   1.085   1_455  S
C734       S1512   1.752   1_656  S
S735        H738   1.395       .  S
S736       C1510   1.752   1_554  S
S736        H737   1.358       .  S
C741        C742   1.403       .  A
C741        C746   1.401       .  A
C742        C743   1.415   1_455  A
C742        H751   1.088       .  S
C743        C744   1.490   1_655  A
C743       S1523   1.865       .  S
C744        C745   1.446       .  A
C745        C746   1.403       .  A
C745        H752   1.051       .  S
C746        S748   1.794       .  S
S747       C1519   1.865       .  S
S747        H750   1.373       .  S
S748        H749   1.406       .  S
C753        C754   1.421       .  A
C753        C758   1.484       .  A
C754        C755   1.401       .  A
C754        H763   0.995       .  S
C755        C756   1.375       .  A
C755        S759   1.814       .  S
C756        C757   1.365       .  A
C757        C758   1.405       .  A
C757        H764   1.088       .  S
C758        S760   1.763       .  S
S759        H762   1.397       .  S
C765        C766   1.387       .  A
C765        C770   1.477       .  A
C766        C767   1.383       .  A
C766        H775   1.032       .  S
C767        C768   1.386       .  A
C767        S771   1.803       .  S
C768        C769   1.396       .  A
C769        C770   1.421       .  A
C769        H776   1.082       .  S
S771        H774   1.404       .  S
S772        H773   1.403       .  S
C777        C782   1.873   1_556  S
C777       C1141   1.691       .  S
C777        C959   1.635   1_556  S
C778        C779   1.878       .  S
C778       C1117   1.702   1_554  S
C778        C938   1.730       .  S
C779       C1362   1.904   1_554  S
C779        C902   1.723       .  S
C779       C1108   1.753   1_554  S
C780       C1361   1.904       .  S
C780       C1072   1.667   1_565  S
C780        C890   1.657   1_565  S
C781        C782   1.856   1_556  S
C781       C1045   1.731       .  S
C781        C863   1.656   1_556  S
C782        C830   1.708       .  S
C782       C1036   1.686   1_554  S
O783        C798   1.257       .  A
O783       Al791   1.897       .  S
C784        O794   1.268       .  A
C784        O785   1.266       .  A
C784        C875   1.508       .  S
O785       Al787   1.943       .  S
O786        C788   1.263       .  A
O786       Al787   1.887       .  S
Al787       O795   1.893       .  S
Al787       O797   1.930       .  S
Al787       O796   1.785       .  S
C788        O801   1.261       .  A
C788        C827   1.477       .  S
O789        C799   1.263       .  A
O789       Al791   1.909       .  S
O790        C803   1.256       .  A
O790       Al800   1.904       .  S
Al791       O804   1.909       .  S
Al791       O801   1.927       .  S
Al791       O796   1.793       .  S
O792        C799   1.272       .  A
O792       Al800   1.939       .  S
O793        C802   1.261       .  A
O793       Al800   1.903       .  S
O794       Al800   1.936       .  S
O795        C802   1.258       .  A
O796       Al800   1.783       .  S
O797        C798   1.265       .  A
C798        C839   1.478       .  S
C799        C935   1.491       .  S
C802        C887   1.472       .  S
C803        O804   1.259       .  A
C803        C926   1.490       .  S
O805        C820   1.266       .  A
O805       Al813   1.901       .  S
C806        O816   1.274   1_545  A
C806        O807   1.262       .  A
C806        C911   1.471       .  S
O807       Al809   1.898       .  S
O808        C810   1.254       .  A
O808       Al809   1.895       .  S
Al809       O817   1.930       .  S
Al809       O819   1.892       .  S
Al809       O818   1.786       .  S
C810        O823   1.255       .  A
C810        C950   1.455       .  S
O811        C821   1.261       .  A
O811       Al813   1.906       .  S
O812        C825   1.269   1_565  A
O812       Al822   1.922   1_565  S
Al813       O826   1.877       .  S
Al813       O823   1.878       .  S
Al813       O818   1.785       .  S
O814        C821   1.252   1_565  A
O814       Al822   1.871   1_565  S
O815        C824   1.260   1_565  A
O815       Al822   1.923   1_565  S
O816       Al822   1.918   1_565  S
O817        C824   1.258       .  A
O818       Al822   1.771       .  S
O819        C820   1.265       .  A
C820        C962   1.452       .  S
C821        C854   1.488   1_545  S
C824        C899   1.489   1_545  S
C825        O826   1.251       .  A
C825        C866   1.492       .  S
C827        C828   1.389       .  A
C827        C832   1.409       .  A
C828        C829   1.393       .  A
C828        H837   1.088       .  S
C829        C830   1.468       .  A
C829       S1027   1.816       .  S
C830        C831   1.440       .  A
C831        C832   1.421       .  A
C831        H838   1.042       .  S
C832        S834   1.801       .  S
S833       C1023   1.816       .  S
S833        H836   1.406       .  S
S834        H835   1.405       .  S
C839        C840   1.372       .  A
C839        C844   1.395       .  A
C840        C841   1.401       .  A
C840        H849   1.086       .  S
C841        C842   1.463       .  A
C841        S845   1.745       .  S
C842        C976   1.686       .  S
C842        C843   1.441       .  A
C843        C844   1.412       .  A
C843        H850   1.053       .  S
C844        S846   1.808       .  S
S845        H848   1.382       .  S
S846        H847   1.406       .  S
C851        C975   1.731       .  S
C851       C1240   1.407       .  A
C851        C856   1.523       .  A
C852       C1239   1.407       .  A
C852        C853   1.392   1_565  A
C852        H861   1.001       .  S
C853        C854   1.370   1_545  A
C853        S857   1.766       .  S
C854       C1243   1.370       .  A
C855       C1242   1.370       .  A
C855        C856   1.421       .  A
C855        H862   1.085       .  S
C856        S858   1.823       .  S
S857        H860   1.408       .  S
S858        H859   1.402       .  S
C863        C864   1.409       .  A
C863       C1256   1.450       .  A
C864        C865   1.399       .  A
C864        H873   1.045       .  S
C865       C1254   1.389       .  A
C865        S869   1.796       .  S
C866       C1253   1.389   1_545  A
C866        C867   1.409       .  A
C867        C868   1.420       .  A
C867        H874   1.084       .  S
C868       C1251   1.450   1_545  A
C868        S870   1.825       .  S
S869        H872   1.408       .  S
S870        H871   1.392   1_554  S
C875        C876   1.383       .  A
C875        C880   1.404       .  A
C876        C877   1.417       .  A
C876        H885   1.086       .  S
C877        C878   1.507       .  A
C877        S881   1.851   1_554  S
C878        C974   1.667   1_544  S
C878        C879   1.408       .  A
C879        C880   1.407       .  A
S881       H1078   1.388       .  S
H884       S1075   1.388       .  S
C887        C888   1.383       .  A
C887        C892   1.382       .  A
C888        C889   1.417       .  A
C888        H897   1.085       .  S
C889        C890   1.492       .  A
C889       S1087   1.817       .  S
C890        C891   1.395       .  A
C891        C892   1.404       .  A
C891        H898   1.031   1_545  S
C892        S894   1.805       .  S
S893       C1083   1.817   1_554  S
S893        H896   1.406   1_554  S
S894        H895   1.406       .  S
C899       C1288   1.391       .  A
C899        C904   1.384   1_565  A
C900       C1287   1.391       .  A
C900        C901   1.428       .  A
C900        H909   1.085       .  S
C901        C902   1.463       .  A
C901        S905   1.750       .  S
C902       C1291   1.426       .  A
C903       C1290   1.426   1_545  A
C903        C904   1.396       .  A
C903        H910   1.035       .  S
C904        S906   1.798       .  S
S905        H908   1.393       .  S
S906        H907   1.407       .  S
C911        C912   1.354   1_545  A
C911        C916   1.390       .  A
C912       C1301   1.393       .  A
C912        H921   1.091       .  S
C913       C1300   1.393       .  A
C913        C914   1.482       .  A
C913       S1305   1.743       .  S
C914        C973   1.752       .  S
C914        C915   1.467       .  A
C915       C1304   1.419       .  A
C915        H922   1.073       .  S
C916       C1303   1.419   1_545  A
C916        S918   1.804       .  S
S917       C1301   1.743       .  S
S917       H1308   1.371       .  S
S918        H919   1.404       .  S
H920       S1305   1.370       .  S
C923        C972   1.702       .  S
C923        C924   1.430       .  A
C923        C928   1.456       .  A
C924        C925   1.396       .  A
C924        H933   1.028       .  S
C925        C926   1.395       .  A
C925        S929   1.803       .  S
C926        C927   1.399       .  A
C927        C928   1.420       .  A
C927        H934   1.085       .  S
S929        H932   1.395       .  S
S930        H931   1.358   1_455  S
C935        C936   1.403       .  A
C935        C940   1.401       .  A
C936        C937   1.415       .  A
C936        H945   1.088       .  S
C937        C938   1.490       .  A
C938        C939   1.446       .  A
C939        C940   1.403       .  A
C939        H946   1.051       .  S
C940        S942   1.794       .  S
S941        H944   1.373       .  S
S942        H943   1.406       .  S
C947        C971   1.691       .  S
C947        C948   1.421       .  A
C947        C952   1.484       .  A
C948        C949   1.401       .  A
C948        H957   0.995       .  S
C949        C950   1.375       .  A
C949        S953   1.814       .  S
C950        C951   1.365       .  A
C951        C952   1.405       .  A
C951        H958   1.088       .  S
C952        S954   1.763       .  S
S953        H956   1.397       .  S
S954       H1149   1.410       .  S
H955       S1148   1.410       .  S
C959        C960   1.387       .  A
C959        C964   1.477       .  A
C960        C961   1.383       .  A
C960        H969   1.032       .  S
C961        C962   1.386       .  A
C961        S965   1.803       .  S
C962        C963   1.396       .  A
C963        C964   1.421       .  A
C963        H970   1.082       .  S
C964       S1160   1.826   1_554  S
S965        H968   1.404       .  S
S966       C1158   1.826       .  S
S966        H967   1.403       .  S
C971        C976   1.873       .  S
C971       C1153   1.635       .  S
C972        C973   1.878       .  S
C972       C1132   1.730       .  S
C973       C1168   1.904       .  S
C973       C1096   1.723       .  S
C974       C1167   1.904   1_556  S
C974       C1084   1.657   1_565  S
C975        C976   1.856       .  S
C975       C1057   1.656       .  S
C976       C1024   1.708       .  S
O977        C992   1.257       .  A
O977       Al985   1.897       .  S
C978        O988   1.268       .  A
C978        O979   1.266       .  A
C978       C1069   1.508       .  S
O979       Al981   1.943       .  S
O980        C982   1.263       .  A
O980       Al981   1.887       .  S
Al981       O989   1.893       .  S
Al981       O991   1.930       .  S
Al981       O990   1.785       .  S
C982        O995   1.261       .  A
C982       C1021   1.477       .  S
O983        C993   1.263       .  A
O983       Al985   1.909       .  S
O984        C997   1.256       .  A
O984       Al994   1.904       .  S
Al985       O998   1.909       .  S
Al985       O995   1.927       .  S
Al985       O990   1.793       .  S
O986        C993   1.272       .  A
O986       Al994   1.939       .  S
O987        C996   1.261       .  A
O987       Al994   1.903       .  S
O988       Al994   1.936       .  S
O989        C996   1.258       .  A
O990       Al994   1.783       .  S
O991        C992   1.265       .  A
C992       C1033   1.478       .  S
C993       C1129   1.491       .  S
C996       C1081   1.472       .  S
C997        O998   1.259       .  A
C997       C1120   1.490       .  S
O999       C1014   1.266       .  A
O999      Al1007   1.901       .  S
C1000      O1010   1.274   1_545  A
C1000      O1001   1.262       .  A
C1000      C1105   1.471       .  S
O1001     Al1003   1.898       .  S
O1002      C1004   1.254       .  A
O1002     Al1003   1.895       .  S
Al1003     O1011   1.930       .  S
Al1003     O1013   1.892       .  S
Al1003     O1012   1.786       .  S
C1004      O1017   1.255       .  A
C1004      C1144   1.455       .  S
O1005      C1015   1.261       .  A
O1005     Al1007   1.906       .  S
O1006      C1019   1.269   1_565  A
O1006     Al1016   1.922   1_565  S
Al1007     O1020   1.877       .  S
Al1007     O1017   1.878       .  S
Al1007     O1012   1.785       .  S
O1008      C1015   1.252   1_565  A
O1008     Al1016   1.871   1_565  S
O1009      C1018   1.260   1_565  A
O1009     Al1016   1.923   1_565  S
O1010     Al1016   1.918   1_565  S
O1011      C1018   1.258       .  A
O1012     Al1016   1.771       .  S
O1013      C1014   1.265       .  A
C1014      C1156   1.452       .  S
C1015      C1048   1.488   1_545  S
C1018      C1093   1.489   1_545  S
C1019      O1020   1.251       .  A
C1019      C1060   1.492       .  S
C1021      C1022   1.389       .  A
C1021      C1026   1.409       .  A
C1022      C1023   1.393       .  A
C1022      H1031   1.088       .  S
C1023      C1024   1.468       .  A
C1024      C1025   1.440       .  A
C1025      C1026   1.421       .  A
C1025      H1032   1.042       .  S
C1026      S1028   1.801       .  S
S1027      H1030   1.406       .  S
S1028      H1029   1.405       .  S
C1033      C1034   1.372       .  A
C1033      C1038   1.395       .  A
C1034      C1035   1.401       .  A
C1034      H1043   1.086       .  S
C1035      C1036   1.462       .  A
C1035      S1039   1.745       .  S
C1036      C1037   1.441       .  A
C1037      C1038   1.412       .  A
C1037      H1044   1.053       .  S
C1038      S1040   1.808       .  S
S1039      H1042   1.382       .  S
S1040      H1041   1.406       .  S
C1045      C1434   1.407       .  A
C1045      C1050   1.523       .  A
C1046      C1433   1.407       .  A
C1046      C1047   1.392   1_565  A
C1046      H1055   1.001       .  S
C1047      C1048   1.370   1_545  A
C1047      S1051   1.766       .  S
C1048      C1437   1.370       .  A
C1049      C1436   1.370       .  A
C1049      C1050   1.421       .  A
C1049      H1056   1.085       .  S
C1050      S1052   1.823       .  S
S1051      H1054   1.408       .  S
S1052      H1053   1.402       .  S
C1057      C1058   1.409       .  A
C1057      C1450   1.450       .  A
C1058      C1059   1.399       .  A
C1058      H1067   1.045       .  S
C1059      C1448   1.389       .  A
C1059      S1063   1.796       .  S
C1060      C1447   1.389   1_545  A
C1060      C1061   1.409       .  A
C1061      C1062   1.420       .  A
C1061      H1068   1.084       .  S
C1062      C1445   1.450   1_545  A
C1062      S1064   1.825       .  S
S1063      H1066   1.408       .  S
S1064      H1065   1.392       .  S
C1069      C1070   1.383       .  A
C1069      C1074   1.404       .  A
C1070      C1071   1.417       .  A
C1070      H1079   1.086       .  S
C1071      C1072   1.507       .  A
C1071      S1075   1.851       .  S
C1072      C1073   1.408       .  A
C1073      C1074   1.407       .  A
C1081      C1082   1.383       .  A
C1081      C1086   1.382       .  A
C1082      C1083   1.417       .  A
C1082      H1091   1.085       .  S
C1083      C1084   1.492       .  A
C1084      C1085   1.395       .  A
C1085      C1086   1.404       .  A
C1085      H1092   1.031   1_545  S
C1086      S1088   1.805       .  S
S1087      H1090   1.406       .  S
S1088      H1089   1.406       .  S
C1093      C1482   1.391       .  A
C1093      C1098   1.384   1_565  A
C1094      C1481   1.391       .  A
C1094      C1095   1.428       .  A
C1094      H1103   1.085       .  S
C1095      C1096   1.463       .  A
C1095      S1099   1.750       .  S
C1096      C1485   1.426       .  A
C1097      C1484   1.426   1_545  A
C1097      C1098   1.396       .  A
C1097      H1104   1.035       .  S
C1098      S1100   1.798       .  S
S1099      H1102   1.393       .  S
S1100      H1101   1.407       .  S
C1105      C1106   1.354   1_545  A
C1105      C1110   1.390       .  A
C1106      C1495   1.393       .  A
C1106      H1115   1.091       .  S
C1107      C1494   1.393       .  A
C1107      C1108   1.482       .  A
C1107      S1499   1.743       .  S
C1108      C1109   1.467       .  A
C1109      C1498   1.419       .  A
C1109      H1116   1.073       .  S
C1110      C1497   1.419   1_545  A
C1110      S1112   1.804       .  S
S1111      C1495   1.743       .  S
S1111      H1502   1.370       .  S
S1112      H1113   1.404       .  S
H1114      S1499   1.370       .  S
C1117      C1118   1.430       .  A
C1117      C1122   1.456       .  A
C1118      C1119   1.396       .  A
C1118      H1127   1.028       .  S
C1119      C1120   1.395       .  A
C1119      S1123   1.803       .  S
C1120      C1121   1.399       .  A
C1121      C1122   1.420       .  A
C1121      H1128   1.085       .  S
S1123      H1126   1.395       .  S
S1124      H1125   1.358   1_455  S
C1129      C1130   1.403       .  A
C1129      C1134   1.401       .  A
C1130      C1131   1.415       .  A
C1130      H1139   1.088       .  S
C1131      C1132   1.490       .  A
C1132      C1133   1.446       .  A
C1133      C1134   1.403       .  A
C1133      H1140   1.051       .  S
C1134      S1136   1.794       .  S
S1135      H1138   1.373       .  S
S1136      H1137   1.406       .  S
C1141      C1142   1.421       .  A
C1141      C1146   1.484       .  A
C1142      C1143   1.401       .  A
C1142      H1151   0.995       .  S
C1143      C1144   1.375       .  A
C1143      S1147   1.814       .  S
C1144      C1145   1.365       .  A
C1145      C1146   1.405       .  A
C1145      H1152   1.088       .  S
C1146      S1148   1.763       .  S
S1147      H1150   1.397       .  S
C1153      C1154   1.387       .  A
C1153      C1158   1.477       .  A
C1154      C1155   1.383       .  A
C1154      H1163   1.032       .  S
C1155      C1156   1.386       .  A
C1155      S1159   1.803       .  S
C1156      C1157   1.396       .  A
C1157      C1158   1.421       .  A
C1157      H1164   1.082       .  S
S1159      H1162   1.404       .  S
S1160      H1161   1.403       .  S
C1165      C1170   1.873   1_556  S
C1165      C1529   1.691       .  S
C1165      C1347   1.635   1_556  S
C1166      C1167   1.878       .  S
C1166      C1505   1.702   1_554  S
C1166      C1326   1.730       .  S
C1167      C1290   1.723       .  S
C1167      C1496   1.753   1_554  S
C1168      C1460   1.667       .  S
C1168      C1278   1.657       .  S
C1169      C1170   1.856   1_556  S
C1169      C1433   1.731       .  S
C1169      C1251   1.656   1_556  S
C1170      C1218   1.708       .  S
C1170      C1424   1.686   1_554  S
O1171      C1186   1.257       .  A
O1171     Al1179   1.897       .  S
C1172      O1182   1.268       .  A
C1172      O1173   1.266       .  A
C1172      C1263   1.508       .  S
O1173     Al1175   1.943       .  S
O1174      C1176   1.263       .  A
O1174     Al1175   1.887       .  S
Al1175     O1183   1.893       .  S
Al1175     O1185   1.930       .  S
Al1175     O1184   1.785       .  S
C1176      O1189   1.261       .  A
C1176      C1215   1.477       .  S
O1177      C1187   1.263       .  A
O1177     Al1179   1.909       .  S
O1178      C1191   1.256       .  A
O1178     Al1188   1.904       .  S
Al1179     O1192   1.909       .  S
Al1179     O1189   1.927       .  S
Al1179     O1184   1.793       .  S
O1180      C1187   1.272       .  A
O1180     Al1188   1.939       .  S
O1181      C1190   1.261       .  A
O1181     Al1188   1.903       .  S
O1182     Al1188   1.936       .  S
O1183      C1190   1.258       .  A
O1184     Al1188   1.783       .  S
O1185      C1186   1.265       .  A
C1186      C1227   1.478       .  S
C1187      C1323   1.491       .  S
C1190      C1275   1.472       .  S
C1191      O1192   1.259       .  A
C1191      C1314   1.490       .  S
O1193      C1208   1.266       .  A
O1193     Al1201   1.901       .  S
C1194      O1204   1.274       .  A
C1194      O1195   1.262       .  A
C1194      C1299   1.471       .  S
O1195     Al1197   1.898       .  S
O1196      C1198   1.254       .  A
O1196     Al1197   1.895       .  S
Al1197     O1205   1.930       .  S
Al1197     O1207   1.892       .  S
Al1197     O1206   1.786       .  S
C1198      O1211   1.255       .  A
C1198      C1338   1.455       .  S
O1199      C1209   1.261       .  A
O1199     Al1201   1.906       .  S
O1200      C1213   1.269       .  A
O1200     Al1210   1.922       .  S
Al1201     O1214   1.877       .  S
Al1201     O1211   1.878       .  S
Al1201     O1206   1.785       .  S
O1202      C1209   1.252       .  A
O1202     Al1210   1.871       .  S
O1203      C1212   1.260       .  A
O1203     Al1210   1.923       .  S
O1204     Al1210   1.918       .  S
O1205      C1212   1.258       .  A
O1206     Al1210   1.771       .  S
O1207      C1208   1.265       .  A
C1208      C1350   1.452       .  S
C1209      C1242   1.488       .  S
C1212      C1287   1.489       .  S
C1213      O1214   1.251       .  A
C1213      C1254   1.492       .  S
C1215      C1216   1.389       .  A
C1215      C1220   1.409       .  A
C1216      C1217   1.393       .  A
C1216      H1225   1.088       .  S
C1217      C1218   1.468       .  A
C1217      S1415   1.816       .  S
C1218      C1219   1.440       .  A
C1219      C1220   1.421       .  A
C1219      H1226   1.042       .  S
C1220      S1222   1.801       .  S
S1221      C1411   1.816       .  S
S1221      H1224   1.406       .  S
S1222      H1223   1.405       .  S
C1227      C1228   1.372       .  A
C1227      C1232   1.395       .  A
C1228      C1229   1.401       .  A
C1228      H1237   1.086       .  S
C1229      C1230   1.462       .  A
C1229      S1233   1.745       .  S
C1230      C1364   1.686       .  S
C1230      C1231   1.441       .  A
C1231      C1232   1.412       .  A
C1231      H1238   1.053       .  S
C1232      S1234   1.808       .  S
S1233      H1236   1.382       .  S
S1234      H1235   1.406       .  S
C1239      C1363   1.731       .  S
C1239      C1244   1.523       .  A
C1240      C1241   1.392       .  A
C1240      H1249   1.001       .  S
C1241      C1242   1.370       .  A
C1241      S1245   1.766       .  S
C1243      C1244   1.421       .  A
C1243      H1250   1.085       .  S
C1244      S1246   1.823       .  S
S1245      H1248   1.408       .  S
S1246      H1247   1.402       .  S
C1251      C1252   1.409       .  A
C1252      C1253   1.399       .  A
C1252      H1261   1.045       .  S
C1253      S1257   1.796       .  S
C1254      C1255   1.409       .  A
C1255      C1256   1.420       .  A
C1255      H1262   1.084       .  S
C1256      S1258   1.825       .  S
S1257      H1260   1.408       .  S
S1258      H1259   1.392   1_554  S
C1263      C1264   1.383       .  A
C1263      C1268   1.404       .  A
C1264      C1265   1.417       .  A
C1264      H1273   1.086       .  S
C1265      C1266   1.507       .  A
C1265      S1269   1.851   1_554  S
C1266      C1362   1.667   1_554  S
C1266      C1267   1.408       .  A
C1267      C1268   1.407       .  A
S1269      H1466   1.388       .  S
H1272      S1463   1.388       .  S
C1275      C1276   1.383       .  A
C1275      C1280   1.382       .  A
C1276      C1277   1.417       .  A
C1276      H1285   1.085       .  S
C1277      C1278   1.492       .  A
C1277      S1475   1.817       .  S
C1278      C1279   1.395       .  A
C1279      C1280   1.404       .  A
C1279      H1286   1.031       .  S
C1280      S1282   1.805       .  S
S1281      C1471   1.817   1_554  S
S1281      H1284   1.406   1_554  S
S1282      H1283   1.406       .  S
C1287      C1292   1.384       .  A
C1288      C1289   1.428       .  A
C1288      H1297   1.085       .  S
C1289      C1290   1.463       .  A
C1289      S1293   1.750       .  S
C1291      C1292   1.396       .  A
C1291      H1298   1.035       .  S
C1292      S1294   1.798       .  S
S1293      H1296   1.393       .  S
S1294      H1295   1.407       .  S
C1299      C1300   1.354       .  A
C1299      C1304   1.390       .  A
C1300      H1309   1.091       .  S
C1301      C1302   1.482       .  A
C1302      C1361   1.752       .  S
C1302      C1303   1.467       .  A
C1303      H1310   1.073       .  S
C1304      S1306   1.804       .  S
S1306      H1307   1.404       .  S
C1311      C1360   1.702       .  S
C1311      C1312   1.430       .  A
C1311      C1316   1.456       .  A
C1312      C1313   1.396       .  A
C1312      H1321   1.028       .  S
C1313      C1314   1.395       .  A
C1313      S1317   1.803       .  S
C1314      C1315   1.399       .  A
C1315      C1316   1.420       .  A
C1315      H1322   1.085       .  S
S1317      H1320   1.395       .  S
S1318      H1319   1.358   1_455  S
C1323      C1324   1.403       .  A
C1323      C1328   1.401       .  A
C1324      C1325   1.415       .  A
C1324      H1333   1.088       .  S
C1325      C1326   1.490       .  A
C1326      C1327   1.446       .  A
C1327      C1328   1.403       .  A
C1327      H1334   1.051       .  S
C1328      S1330   1.794       .  S
S1329      H1332   1.373       .  S
S1330      H1331   1.406       .  S
C1335      C1359   1.691       .  S
C1335      C1336   1.421       .  A
C1335      C1340   1.484       .  A
C1336      C1337   1.401       .  A
C1336      H1345   0.995       .  S
C1337      C1338   1.375       .  A
C1337      S1341   1.814       .  S
C1338      C1339   1.365       .  A
C1339      C1340   1.405       .  A
C1339      H1346   1.088       .  S
C1340      S1342   1.763       .  S
S1341      H1344   1.397       .  S
S1342      H1537   1.410       .  S
H1343      S1536   1.410       .  S
C1347      C1348   1.387       .  A
C1347      C1352   1.477       .  A
C1348      C1349   1.383       .  A
C1348      H1357   1.032       .  S
C1349      C1350   1.386       .  A
C1349      S1353   1.803       .  S
C1350      C1351   1.396       .  A
C1351      C1352   1.421       .  A
C1351      H1358   1.082       .  S
C1352      S1548   1.826   1_554  S
S1353      H1356   1.404       .  S
S1354      C1546   1.826       .  S
S1354      H1355   1.403       .  S
C1359      C1364   1.873       .  S
C1359      C1541   1.635       .  S
C1360      C1361   1.878       .  S
C1360      C1520   1.730       .  S
C1361      C1484   1.723       .  S
C1362      C1472   1.657       .  S
C1363      C1364   1.856       .  S
C1363      C1445   1.656       .  S
C1364      C1412   1.708       .  S
O1365      C1380   1.257       .  A
O1365     Al1373   1.897       .  S
C1366      O1376   1.268       .  A
C1366      O1367   1.266       .  A
C1366      C1457   1.508       .  S
O1367     Al1369   1.943       .  S
O1368      C1370   1.263       .  A
O1368     Al1369   1.887       .  S
Al1369     O1377   1.893       .  S
Al1369     O1379   1.930       .  S
Al1369     O1378   1.785       .  S
C1370      O1383   1.261       .  A
C1370      C1409   1.477       .  S
O1371      C1381   1.263       .  A
O1371     Al1373   1.909       .  S
O1372      C1385   1.256       .  A
O1372     Al1382   1.904       .  S
Al1373     O1386   1.909       .  S
Al1373     O1383   1.927       .  S
Al1373     O1378   1.793       .  S
O1374      C1381   1.272       .  A
O1374     Al1382   1.939       .  S
O1375      C1384   1.261       .  A
O1375     Al1382   1.903       .  S
O1376     Al1382   1.936       .  S
O1377      C1384   1.258       .  A
O1378     Al1382   1.783       .  S
O1379      C1380   1.265       .  A
C1380      C1421   1.478       .  S
C1381      C1517   1.491       .  S
C1384      C1469   1.472       .  S
C1385      O1386   1.259       .  A
C1385      C1508   1.490       .  S
O1387      C1402   1.266       .  A
O1387     Al1395   1.901       .  S
C1388      O1398   1.274       .  A
C1388      O1389   1.262       .  A
C1388      C1493   1.471       .  S
O1389     Al1391   1.898       .  S
O1390      C1392   1.254       .  A
O1390     Al1391   1.895       .  S
Al1391     O1399   1.930       .  S
Al1391     O1401   1.892       .  S
Al1391     O1400   1.786       .  S
C1392      O1405   1.255       .  A
C1392      C1532   1.455       .  S
O1393      C1403   1.261       .  A
O1393     Al1395   1.906       .  S
O1394      C1407   1.269       .  A
O1394     Al1404   1.922       .  S
Al1395     O1408   1.877       .  S
Al1395     O1405   1.878       .  S
Al1395     O1400   1.785       .  S
O1396      C1403   1.252       .  A
O1396     Al1404   1.871       .  S
O1397      C1406   1.260       .  A
O1397     Al1404   1.923       .  S
O1398     Al1404   1.918       .  S
O1399      C1406   1.258       .  A
O1400     Al1404   1.771       .  S
O1401      C1402   1.265       .  A
C1402      C1544   1.452       .  S
C1403      C1436   1.488       .  S
C1406      C1481   1.489       .  S
C1407      O1408   1.251       .  A
C1407      C1448   1.492       .  S
C1409      C1410   1.389       .  A
C1409      C1414   1.409       .  A
C1410      C1411   1.393       .  A
C1410      H1419   1.088       .  S
C1411      C1412   1.468       .  A
C1412      C1413   1.440       .  A
C1413      C1414   1.421       .  A
C1413      H1420   1.042       .  S
C1414      S1416   1.801       .  S
S1415      H1418   1.406       .  S
S1416      H1417   1.405       .  S
C1421      C1422   1.372       .  A
C1421      C1426   1.395       .  A
C1422      C1423   1.401       .  A
C1422      H1431   1.086       .  S
C1423      C1424   1.462       .  A
C1423      S1427   1.745       .  S
C1424      C1425   1.441       .  A
C1425      C1426   1.412       .  A
C1425      H1432   1.053       .  S
C1426      S1428   1.808       .  S
S1427      H1430   1.382       .  S
S1428      H1429   1.406       .  S
C1433      C1438   1.523       .  A
C1434      C1435   1.392       .  A
C1434      H1443   1.001       .  S
C1435      C1436   1.370       .  A
C1435      S1439   1.766       .  S
C1437      C1438   1.421       .  A
C1437      H1444   1.085       .  S
C1438      S1440   1.823       .  S
S1439      H1442   1.408       .  S
S1440      H1441   1.402       .  S
C1445      C1446   1.409       .  A
C1446      C1447   1.399       .  A
C1446      H1455   1.045       .  S
C1447      S1451   1.796       .  S
C1448      C1449   1.409       .  A
C1449      C1450   1.420       .  A
C1449      H1456   1.084       .  S
C1450      S1452   1.825       .  S
S1451      H1454   1.408       .  S
S1452      H1453   1.392       .  S
C1457      C1458   1.383       .  A
C1457      C1462   1.404       .  A
C1458      C1459   1.417       .  A
C1458      H1467   1.086       .  S
C1459      C1460   1.507       .  A
C1459      S1463   1.851       .  S
C1460      C1461   1.408       .  A
C1461      C1462   1.407       .  A
C1469      C1470   1.383       .  A
C1469      C1474   1.382       .  A
C1470      C1471   1.417       .  A
C1470      H1479   1.085       .  S
C1471      C1472   1.492       .  A
C1472      C1473   1.395       .  A
C1473      C1474   1.404       .  A
C1473      H1480   1.031       .  S
C1474      S1476   1.805       .  S
S1475      H1478   1.406       .  S
S1476      H1477   1.406       .  S
C1481      C1486   1.384       .  A
C1482      C1483   1.428       .  A
C1482      H1491   1.085       .  S
C1483      C1484   1.463       .  A
C1483      S1487   1.750       .  S
C1485      C1486   1.396       .  A
C1485      H1492   1.035       .  S
C1486      S1488   1.798       .  S
S1487      H1490   1.393       .  S
S1488      H1489   1.407       .  S
C1493      C1494   1.354       .  A
C1493      C1498   1.390       .  A
C1494      H1503   1.091       .  S
C1495      C1496   1.482       .  A
C1496      C1497   1.467       .  A
C1497      H1504   1.073       .  S
C1498      S1500   1.804       .  S
S1500      H1501   1.404       .  S
C1505      C1506   1.430       .  A
C1505      C1510   1.456       .  A
C1506      C1507   1.396       .  A
C1506      H1515   1.028       .  S
C1507      C1508   1.395       .  A
C1507      S1511   1.803       .  S
C1508      C1509   1.399       .  A
C1509      C1510   1.420       .  A
C1509      H1516   1.085       .  S
S1511      H1514   1.395       .  S
S1512      H1513   1.358   1_455  S
C1517      C1518   1.403       .  A
C1517      C1522   1.401       .  A
C1518      C1519   1.415       .  A
C1518      H1527   1.088       .  S
C1519      C1520   1.490       .  A
C1520      C1521   1.446       .  A
C1521      C1522   1.403       .  A
C1521      H1528   1.051       .  S
C1522      S1524   1.794       .  S
S1523      H1526   1.373       .  S
S1524      H1525   1.406       .  S
C1529      C1530   1.421       .  A
C1529      C1534   1.484       .  A
C1530      C1531   1.401       .  A
C1530      H1539   0.995       .  S
C1531      C1532   1.375       .  A
C1531      S1535   1.814       .  S
C1532      C1533   1.365       .  A
C1533      C1534   1.405       .  A
C1533      H1540   1.088       .  S
C1534      S1536   1.763       .  S
S1535      H1538   1.397       .  S
C1541      C1542   1.387       .  A
C1541      C1546   1.477       .  A
C1542      C1543   1.383       .  A
C1542      H1551   1.032       .  S
C1543      C1544   1.386       .  A
C1543      S1547   1.803       .  S
C1544      C1545   1.396       .  A
C1545      C1546   1.421       .  A
C1545      H1552   1.082       .  S
S1547      H1550   1.404       .  S
S1548      H1549   1.403       .  S
