geometry optimzed in LAMMPS
_audit_creation_date              2020-11-30 
_audit_creation_method            'lammps2cif' 
_symmetry_space_group_name_H-M    'P1' 
_symmetry_Int_Tables_number       1 
_symmetry_cell_setting            triclinic 
loop_ 
_symmetry_equiv_pos_as_xyz 
  x,y,z 
_cell_length_a                    93.43688806 
_cell_length_b                    93.37398045427481 
_cell_length_c                    93.61302755957968 
_cell_angle_alpha                 90.01214524864068 
_cell_angle_beta                  90.59073457728117 
_cell_angle_gamma                 90.13916115469176 
loop_ 
_atom_site_label 
_atom_site_type_symbol 
_atom_site_fract_x 
_atom_site_fract_y 
_atom_site_fract_z 
_atom_site_charge 
O1          O  0.69643970  0.59131697  0.85659739    -0.56600
C2          C  0.72990678  0.59055979  0.81329221     0.76000
O3          O  0.69545978  0.56397750  0.82365900    -0.57800
C4          C  0.70808982  0.59516093  0.86243728     0.76000
C5          C  0.68462070  0.60918397  0.82331473     0.78400
Cd6        Cd  0.70558178  0.58772213  0.83234719     1.37500
O7          O  0.73065163  0.59421247  0.82630887    -0.56600
O8          O  0.69797479  0.61131467  0.82336529    -0.55400
C9          C  0.70200454  0.55669337  0.83309812     0.78300
O10         O  0.68056073  0.59674431  0.82691728    -0.57800
O11         O  0.71795434  0.58568455  0.80900149    -0.56300
O12         O  0.71890595  0.59580373  0.85439381    -0.56200
O13         O  0.70958123  0.56367726  0.84190409    -0.55400
O14         O  0.81398986  0.58922827  0.73075540    -0.56600
C15         C  0.85372709  0.58569838  0.72005048     0.76000
O16         O  0.83303210  0.56701588  0.68981517    -0.57800
C17         C  0.80120206  0.58948420  0.72612965     0.76000
C18         C  0.82260603  0.61017107  0.68659991     0.78400
Cd19       Cd  0.82525367  0.58621557  0.70665562     1.37500
O20         O  0.84400311  0.57687815  0.72323880    -0.56600
O21         O  0.82456008  0.61192857  0.69988198    -0.55400
C22         C  0.82435887  0.55756796  0.69410642     0.78300
O23         O  0.82169647  0.59730178  0.68236851    -0.57800
O24         O  0.85020219  0.59541062  0.71128720    -0.56300
O25         O  0.79961163  0.58862006  0.71272940    -0.56200
O26         O  0.81549521  0.56157186  0.70339407    -0.55400
O27         O  0.59763437  0.73509281  0.82632127    -0.56600
C28         C  0.59386458  0.71698776  0.86375103     0.76000
O29         O  0.56409765  0.72399851  0.83703770    -0.57800
C30         C  0.59398819  0.73434611  0.81328749     0.76000
C31         C  0.60177267  0.68488513  0.82768214     0.78400
Cd32       Cd  0.58707322  0.71188442  0.83374043     1.37500
O33         O  0.60231986  0.72078169  0.85398495    -0.56600
O34         O  0.60730178  0.69692203  0.82485965    -0.55400
C35         C  0.55611870  0.71412343  0.83226602     0.78300
O36         O  0.58931562  0.68521077  0.83281060    -0.57800
O37         O  0.58257214  0.71063496  0.85971866    -0.56300
O38         O  0.58762424  0.72295736  0.80944198    -0.56200
O39         O  0.56235644  0.70297400  0.82776611    -0.55400
O40         O  0.59223971  0.81783226  0.72860641    -0.56600
C41         C  0.58591187  0.85781950  0.70643904     0.76000
O42         O  0.59992667  0.82302454  0.67970186    -0.57800
C43         C  0.59365509  0.80485165  0.72486126     0.76000
C44         C  0.55859008  0.82078470  0.69662915     0.78400
Cd45       Cd  0.58833536  0.82701879  0.70344093     1.37500
O46         O  0.59146825  0.85054253  0.71652645    -0.56600
O47         O  0.56244273  0.82793935  0.70748801    -0.55400
C48         C  0.61239717  0.82648325  0.68394948     0.78300
O49         O  0.56853435  0.81611821  0.68878445    -0.57800
O50         O  0.58188701  0.85093163  0.69549297    -0.56300
O51         O  0.59311379  0.80241514  0.71158983    -0.56200
O52         O  0.61368537  0.82982604  0.69699306    -0.55400
O53         O  0.81536664  0.73042881  0.58678221    -0.56600
C54         C  0.85425194  0.70900180  0.57948690     0.76000
O55         O  0.81585865  0.68066197  0.58507693    -0.57800
C56         C  0.80215062  0.72730380  0.58662189     0.76000
C57         C  0.81932103  0.70647792  0.54861127     0.78400
Cd58       Cd  0.82340301  0.70578169  0.57933318     1.37500
O59         O  0.84677830  0.71617350  0.58817021    -0.56600
O60         O  0.82189631  0.71742529  0.55613646    -0.55400
C61         C  0.81906939  0.68119737  0.59825725     0.78300
O62         O  0.81795342  0.69471042  0.55526009    -0.57800
O63         O  0.84753696  0.70057564  0.57126891    -0.56300
O64         O  0.79902521  0.71438710  0.58392855    -0.56200
O65         O  0.82401301  0.69303844  0.60272577    -0.55400
O66         O  0.73290623  0.82977652  0.58828934    -0.56600
C67         C  0.70797786  0.86446169  0.57653881     0.76000
O68         O  0.69813583  0.81874277  0.55882003    -0.57800
C69         C  0.73300256  0.81639638  0.58607339     0.76000
C70         C  0.68464819  0.82832920  0.59824119     0.78400
Cd71       Cd  0.70798448  0.83350625  0.57851068     1.37500
O72         O  0.69770945  0.85673572  0.57221143    -0.56600
O73         O  0.69693890  0.83198151  0.60278008    -0.55400
C74         C  0.70428650  0.82542718  0.54886269     0.78300
O75         O  0.68334705  0.82674056  0.58490321    -0.57800
O76         O  0.71857083  0.85798372  0.58209214    -0.56300
O77         O  0.72161127  0.81112156  0.58088929    -0.56200
O78         O  0.71238344  0.83570110  0.55256354    -0.55400
O79         O  0.69032268  0.00703553  0.55071174    -0.56600
C80         C  0.67567387  0.00332047  0.58975039     0.76000
O81         O  0.70274353  0.97971559  0.56934790    -0.57800
C82         C  0.70173997  0.00706289  0.54357552     0.76000
C83         C  0.71306617  0.03302241  0.58293322     0.78400
Cd84       Cd  0.70191105  0.00533556  0.57414584     1.37500
O85         O  0.67572125  0.00686679  0.57670010    -0.56600
O86         O  0.69997477  0.03039364  0.58069740    -0.55400
C87         C  0.71206552  0.97641556  0.57864192     0.78300
O88         O  0.72157733  0.02257371  0.58144145    -0.57800
O89         O  0.68772486  0.00077662  0.59553197    -0.56300
O90         O  0.71340420  0.00686073  0.55058858    -0.56200
O91         O  0.71727576  0.98666857  0.58594799    -0.55400
O92         O  0.58936831  0.99326277  0.66831713    -0.56600
C93         C  0.55003413  0.99624727  0.68723543     0.76000
O94         O  0.58898820  0.98022865  0.71354967    -0.57800
C95         C  0.60223470  0.99122334  0.67227730     0.76000
C96         C  0.58596539  0.02536926  0.69989353     0.78400
Cd97       Cd  0.58030530  0.99557011  0.69299088     1.37500
O98         O  0.55876503  0.99339194  0.67737252    -0.56600
O99         O  0.58622003  0.02025159  0.68742786    -0.55400
C100        C  0.58351048  0.96883175  0.70845215     0.78300
O101        O  0.58327316  0.01662173  0.70991590    -0.57800
O102        O  0.55536651  0.99884331  0.69946040    -0.56300
O103        O  0.60467127  0.99074539  0.68558385    -0.56200
O104        O  0.57643097  0.97016624  0.69694895    -0.55400
O105        O  0.82124086  0.41182417  0.72973377    -0.56600
C106        C  0.85577839  0.41593906  0.70431078     0.76000
O107        O  0.81891826  0.40357929  0.68002103    -0.57800
C108        C  0.80770326  0.41231826  0.72943044     0.76000
C109        C  0.81833257  0.44522135  0.69593795     0.78400
Cd110      Cd  0.82470887  0.41558903  0.70354851     1.37500
O111        O  0.84880404  0.41244147  0.71532936    -0.56600
O112        O  0.82872615  0.44178255  0.70397184    -0.55400
C113        C  0.82004188  0.39088020  0.68463544     0.78300
O114        O  0.81067315  0.43498339  0.69128987    -0.57800
O115        O  0.84847853  0.41905984  0.69331234    -0.56300
O116        O  0.80198536  0.41406931  0.71723913    -0.56200
O117        O  0.82271177  0.38962929  0.69783844    -0.55400
O118        O  0.72718143  0.41192897  0.81636652    -0.56600
C119        C  0.70376760  0.41196251  0.85691399     0.76000
O120        O  0.68643153  0.43485520  0.81916291    -0.57800
C121        C  0.72299489  0.41205899  0.80340219     0.76000
C122        C  0.68478746  0.38908735  0.82132517     0.78400
Cd123      Cd  0.70224789  0.41435235  0.82609838     1.37500
O124        O  0.71485490  0.40927233  0.84963857    -0.56600
O125        O  0.69805802  0.38848371  0.82405151    -0.55400
C126        C  0.69532371  0.44445977  0.82294561     0.78300
O127        O  0.67939690  0.40151635  0.82026240    -0.57800
O128        O  0.69276363  0.41583374  0.85000909    -0.56300
O129        O  0.70964925  0.41300965  0.80125146    -0.56200
O130        O  0.70714244  0.44010267  0.82803599    -0.55400
O131        O  0.58479436  0.29601894  0.85470060    -0.56600
C132        C  0.59115534  0.26391645  0.81060567     0.76000
O133        O  0.56071146  0.29796422  0.82529821    -0.57800
C134        C  0.59072860  0.28528995  0.86043646     0.76000
C135        C  0.60285440  0.31151592  0.82210027     0.78400
Cd136      Cd  0.58498908  0.28722576  0.83011137     1.37500
O137        O  0.59494249  0.26357723  0.82359976    -0.56600
O138        O  0.60814468  0.30009603  0.82713139    -0.55400
C139        C  0.55381060  0.28746718  0.83036980     0.78300
O140        O  0.58942074  0.31158216  0.82025679    -0.57800
O141        O  0.58500276  0.27524763  0.80639782    -0.56300
O142        O  0.59432189  0.27522624  0.85216172    -0.56200
O143        O  0.56120699  0.27715496  0.83505788    -0.55400
O144        O  0.81848525  0.26945233  0.59056166    -0.56600
C145        C  0.85523090  0.28338433  0.58127902     0.76000
O146        O  0.81602694  0.29238014  0.55496371    -0.57800
C147        C  0.80585690  0.26917777  0.58557342     0.76000
C148        C  0.81948103  0.31722043  0.59861401     0.78400
Cd149      Cd  0.82559625  0.29284716  0.57989367     1.37500
O150        O  0.84628353  0.27836086  0.57239274    -0.56600
O151        O  0.82402302  0.30541561  0.60346948    -0.55400
C152        C  0.82501837  0.30117885  0.54999402     0.78300
O153        O  0.81721958  0.31765963  0.58528344    -0.57800
O154        O  0.85046197  0.29238439  0.59013124    -0.56300
O155        O  0.80206325  0.28003237  0.57839733    -0.56200
O156        O  0.83376363  0.30659694  0.55887856    -0.55400
O157        O  0.58660040  0.17687738  0.73118882    -0.56600
C158        C  0.58259695  0.13520737  0.71634299     0.76000
O159        O  0.55807623  0.16772550  0.69254438    -0.57800
C160        C  0.58397714  0.18946932  0.72683275     0.76000
C161        C  0.60374658  0.16909937  0.68861014     0.78400
Cd162      Cd  0.57992501  0.16510768  0.70820173     1.37500
O163        O  0.58230074  0.14500636  0.72567817    -0.56600
O164        O  0.60542930  0.16719082  0.70189671    -0.55400
C165        C  0.54924008  0.16748185  0.70273404     0.78300
O166        O  0.59089937  0.16936835  0.68406781    -0.57800
O167        O  0.58172487  0.13921354  0.70345592    -0.56300
O168        O  0.57997573  0.19072914  0.71394751    -0.56200
O169        O  0.55454964  0.16603305  0.71511534    -0.55400
O170        O  0.72249332  0.18354197  0.58550406    -0.56600
C171        C  0.70098058  0.14282461  0.58496648     0.76000
O172        O  0.67304748  0.17956632  0.58845231    -0.57800
C173        C  0.71868329  0.19654640  0.58470587     0.76000
C174        C  0.69271340  0.17495158  0.55010964     0.78400
Cd175      Cd  0.69762566  0.17349457  0.58088976     1.37500
O176        O  0.71142673  0.15117340  0.58758659    -0.56600
O177        O  0.70378603  0.16935983  0.55560893    -0.55400
C178        C  0.67488721  0.17742222  0.60169725     0.78300
O179        O  0.68374127  0.18001370  0.55878462    -0.57800
O180        O  0.68959013  0.14861395  0.58049938    -0.56300
O181        O  0.70543748  0.19871407  0.58295642    -0.56200
O182        O  0.68749436  0.17419571  0.60564585    -0.55400
O183        O  0.99325878  0.32461752  0.58609339    -0.56600
C184        C  0.99590729  0.30223783  0.55038886     0.76000
O185        O  0.01304058  0.27942103  0.58546388    -0.57800
C186        C  0.99367855  0.32304266  0.59951546     0.76000
C187        C  0.96709007  0.28630494  0.58535189     0.78400
Cd188      Cd  0.99500942  0.29883539  0.58065619     1.37500
O189        O  0.99387647  0.31280996  0.55858866    -0.56600
O190        O  0.97767566  0.28268104  0.59311016    -0.55400
C191        C  0.02369186  0.28786534  0.58498569     0.78300
O192        O  0.96970317  0.29483940  0.57523862    -0.57800
O193        O  0.99748341  0.29008086  0.55620564    -0.56300
O194        O  0.99461718  0.31034058  0.60413987    -0.56200
O195        O  0.02088018  0.30094357  0.58293003    -0.55400
O196        O  0.99959229  0.43442820  0.68987666    -0.56600
C197        C  0.99656853  0.39111829  0.68867952     0.76000
O198        O  0.01413241  0.41617086  0.72878931    -0.57800
C199        C  0.00086706  0.44428359  0.69910336     0.76000
C200        C  0.96773939  0.41363570  0.71720513     0.78400
Cd201      Cd  0.99719716  0.41488644  0.70788766     1.37500
O202        O  0.99826144  0.40383423  0.68418252    -0.56600
O203        O  0.97157884  0.41743291  0.70488053    -0.55400
C204        C  0.02435954  0.41027419  0.72222214     0.78300
O205        O  0.97771795  0.41046183  0.72594533    -0.57800
O206        O  0.99534594  0.38944673  0.70204072    -0.56300
O207        O  0.00074857  0.44043886  0.71205240    -0.56200
O208        O  0.02161191  0.40578587  0.70975690    -0.55400
O209        O  0.17222864  0.26713969  0.59154067    -0.56600
C210        C  0.13579985  0.29151266  0.58222866     0.76000
O211        O  0.17909102  0.31385732  0.58851831    -0.57800
C212        C  0.18557557  0.26765543  0.58937356     0.76000
C213        C  0.16928629  0.29031929  0.54984231     0.78400
Cd214      Cd  0.16681297  0.29107407  0.58086159     1.37500
O215        O  0.14267308  0.28065427  0.58668057    -0.56600
O216        O  0.16284547  0.28096662  0.55710473    -0.55400
C217        C  0.17352617  0.31435713  0.60080450     0.78300
O218        O  0.17490507  0.30059585  0.55680124    -0.57800
O219        O  0.14317903  0.30173471  0.57731555    -0.56300
O220        O  0.19023623  0.27904040  0.58375687    -0.56200
O221        O  0.16518951  0.30414524  0.60388563    -0.55400
O222        O  0.27071157  0.18583795  0.59674871    -0.56600
C223        C  0.28328951  0.14562993  0.59057067     0.76000
O224        O  0.31118905  0.17143045  0.56921142    -0.57800
C225        C  0.27410138  0.19848381  0.59321528     0.76000
C226        C  0.31706967  0.17943214  0.61014795     0.78400
Cd227      Cd  0.29403016  0.17496412  0.58930320     1.37500
O228        O  0.27851202  0.15476703  0.58183249    -0.56600
O229        O  0.30466369  0.17556063  0.61393820    -0.55400
C230        C  0.30268852  0.17585751  0.55956996     0.78300
O231        O  0.31873282  0.18155566  0.59690665    -0.57800
O232        O  0.29268655  0.15005543  0.59933295    -0.56300
O233        O  0.28669222  0.20024900  0.58876441    -0.56200
O234        O  0.29056219  0.18000417  0.56371050    -0.55400
O235        O  0.40055258  0.17105039  0.74641129    -0.56600
C236        C  0.40435890  0.13363302  0.72154607     0.76000
O237        O  0.39802222  0.17322997  0.69766815    -0.57800
C238        C  0.40260088  0.18439668  0.74498990     0.76000
C239        C  0.43837018  0.16695281  0.71988088     0.78400
Cd240      Cd  0.40741802  0.16452833  0.72156409     1.37500
O241        O  0.40102616  0.14076709  0.73255221    -0.56600
O242        O  0.43195472  0.16147863  0.73036697    -0.55400
C243        C  0.38496878  0.17102876  0.70062708     0.78300
O244        O  0.43053244  0.17146072  0.70967919    -0.57800
O245        O  0.40909322  0.14069007  0.71108950    -0.56300
O246        O  0.40642329  0.18856847  0.73272859    -0.56200
O247        O  0.38248733  0.16649438  0.71308481    -0.55400
O248        O  0.40297443  0.29049001  0.80658670    -0.56600
C249        C  0.41085437  0.29713256  0.86105418     0.76000
O250        O  0.43318643  0.31183301  0.82105964    -0.57800
C251        C  0.40338706  0.27727719  0.80949053     0.76000
C252        C  0.39157097  0.32301829  0.82686533     0.78400
Cd253      Cd  0.41142932  0.29931063  0.83019188     1.37500
O254        O  0.41658731  0.30737003  0.85440808    -0.56600
O255        O  0.38760413  0.31096435  0.83165356    -0.55400
C256        C  0.44198202  0.30231437  0.82505251     0.78300
O257        O  0.40454895  0.32401832  0.82321319    -0.57800
O258        O  0.40499681  0.28744391  0.85348507    -0.56300
O259        O  0.40682932  0.27407976  0.82221422    -0.56200
O260        O  0.43666464  0.29139055  0.83097755    -0.55400
O261        O  0.17453329  0.40953300  0.72858371    -0.56600
C262        C  0.13535015  0.40642667  0.71506300     0.76000
O263        O  0.16942164  0.43470585  0.68901279    -0.57800
C264        C  0.18738022  0.41038017  0.72447456     0.76000
C265        C  0.16458199  0.39436094  0.67942797     0.78400
Cd266      Cd  0.16359171  0.41347928  0.70425785     1.37500
O267        O  0.13823129  0.41851981  0.70972789    -0.56600
O268        O  0.17311898  0.39282906  0.68989775    -0.55400
C269        C  0.16538758  0.44397219  0.69797747     0.78300
O270        O  0.15605653  0.40481872  0.68019966    -0.57800
O271        O  0.14559604  0.39760570  0.71585319    -0.56300
O272        O  0.18914664  0.41226816  0.71124095    -0.56200
O273        O  0.16060610  0.43917173  0.70962156    -0.55400
O274        O  0.26983062  0.42662595  0.85381644    -0.56600
C275        C  0.25772732  0.41003986  0.81351343     0.76000
O276        O  0.28323869  0.43875210  0.82199764    -0.57800
C277        C  0.27190623  0.41666469  0.86269871     0.76000
C278        C  0.30238892  0.39191629  0.83009420     0.78400
Cd279      Cd  0.28150719  0.41485538  0.83336398     1.37500
O280        O  0.25621323  0.40968776  0.82691460    -0.56600
O281        O  0.28929698  0.38963741  0.83246740    -0.55400
C282        C  0.29316237  0.44337335  0.83008909     0.78300
O283        O  0.30605940  0.40490904  0.82877462    -0.57800
O284        O  0.27029882  0.41237174  0.80911749    -0.56300
O285        O  0.27797325  0.40555335  0.85799079    -0.56200
O286        O  0.29841689  0.43452246  0.83890544    -0.55400
O287        O  0.30882839  0.00509845  0.56193602    -0.56600
C288        C  0.32111175  0.00694119  0.60169538     0.76000
O289        O  0.28156309  0.02288241  0.59948726    -0.57800
C290        C  0.29780604  0.00330523  0.55414927     0.76000
C291        C  0.28464489  0.97738584  0.58991944     0.78400
Cd292      Cd  0.29566753  0.00583023  0.58449189     1.37500
O293        O  0.32153453  0.01013613  0.58856371    -0.56600
O294        O  0.29779844  0.98014348  0.58846648    -0.55400
C295        C  0.28365101  0.03359757  0.59148168     0.78300
O296        O  0.27616460  0.98796568  0.58914807    -0.57800
O297        O  0.30902557  0.00357265  0.60666713    -0.56300
O298        O  0.28584974  0.00286972  0.56039847    -0.56200
O299        O  0.29021159  0.03117794  0.58000058    -0.55400
O300        O  0.43240639  0.99603020  0.69727605    -0.56600
C301        C  0.38983181  0.99272812  0.68833732     0.76000
O302        O  0.39970356  0.97621950  0.72777577    -0.57800
C303        C  0.44052512  0.99672568  0.70820003     0.76000
C304        C  0.40411666  0.02242083  0.72367033     0.78400
Cd305      Cd  0.41013050  0.99461351  0.71138808     1.37500
O306        O  0.40287673  0.99549691  0.68592797    -0.56600
O307        O  0.40561590  0.02025175  0.71044712    -0.55400
C308        C  0.40690047  0.96597917  0.72261598     0.78300
O309        O  0.40508858  0.01149988  0.73167817    -0.57800
O310        O  0.38639738  0.99066244  0.70119320    -0.56300
O311        O  0.43456009  0.99647340  0.72026732    -0.56200
O312        O  0.41573077  0.96920421  0.71298233    -0.55400
O313        O  0.99661544  0.67260249  0.58874067    -0.56600
C314        C  0.99470375  0.69439690  0.55488324     0.76000
O315        O  0.97546906  0.71377012  0.59823139    -0.57800
C316        C  0.99216392  0.67241419  0.60146315     0.76000
C317        C  0.02072879  0.71253193  0.59193439     0.78400
Cd318      Cd  0.99346959  0.69857485  0.58535006     1.37500
O319        O  0.99547293  0.68396278  0.56347529    -0.56600
O320        O  0.01769728  0.70015409  0.59642611    -0.55400
C321        C  0.96508527  0.71011457  0.59019552     0.78300
O322        O  0.01084330  0.71901278  0.58527739    -0.57800
O323        O  0.99361274  0.70673413  0.56036473    -0.56300
O324        O  0.98831891  0.68429450  0.60670672    -0.56200
O325        O  0.96800803  0.70168440  0.58009362    -0.55400
O326        O  0.99182066  0.59127988  0.68652430    -0.56600
C327        C  0.99811004  0.55501484  0.71145652     0.76000
O328        O  0.01303083  0.59260682  0.73026947    -0.57800
C329        C  0.98871683  0.60432576  0.68869599     0.76000
C330        C  0.96574623  0.58842677  0.72492973     0.78400
Cd331      Cd  0.99387287  0.58547657  0.71235780     1.37500
O332        O  0.99545018  0.56196941  0.70009151    -0.56600
O333        O  0.96853384  0.57936025  0.71531457    -0.55400
C334        C  0.02263444  0.59412199  0.72087770     0.78300
O335        O  0.97625029  0.59575581  0.72963662    -0.57800
O336        O  0.99863179  0.56210518  0.72297074    -0.56300
O337        O  0.98797671  0.60836365  0.70155578    -0.56200
O338        O  0.01869340  0.59218668  0.70806482    -0.55400
O339        O  0.40950408  0.73689174  0.82658031    -0.56600
C340        C  0.41193597  0.71310538  0.86330919     0.76000
O341        O  0.40305429  0.68735558  0.82656427    -0.57800
C342        C  0.41087460  0.73551469  0.81320668     0.76000
C343        C  0.44377923  0.70522637  0.82838977     0.78400
Cd344      Cd  0.41372178  0.71125315  0.83241244     1.37500
O345        O  0.40719377  0.72308430  0.85543715    -0.56600
O346        O  0.43421845  0.69710478  0.82310237    -0.55400
C347        C  0.39027439  0.69178084  0.82569615     0.78300
O348        O  0.43941505  0.71594582  0.83535273    -0.57800
O349        O  0.41713642  0.70240994  0.85692658    -0.56300
O350        O  0.41335452  0.72298192  0.80871535    -0.56200
O351        O  0.38844521  0.70505608  0.82752020    -0.55400
O352        O  0.42342343  0.84590880  0.71998602    -0.56600
C353        C  0.41266500  0.80335179  0.72315018     0.76000
O354        O  0.40991228  0.82449528  0.67751374    -0.57800
C355        C  0.41377493  0.85472643  0.71651322     0.76000
C356        C  0.44639965  0.82760681  0.69488827     0.78400
Cd357      Cd  0.41648908  0.82680222  0.70321621     1.37500
O358        O  0.41058038  0.81620232  0.72690439    -0.56600
O359        O  0.43781749  0.83763771  0.69189452    -0.55400
C360        C  0.39657513  0.82316599  0.67929774     0.78300
O361        O  0.44106407  0.81675463  0.70094456    -0.57800
O362        O  0.41598091  0.80137774  0.71024720    -0.56300
O363        O  0.40457792  0.85042324  0.70744781    -0.56200
O364        O  0.39236346  0.82332285  0.69210251    -0.55400
O365        O  0.25836702  0.82926131  0.60222111    -0.56600
C366        C  0.28549984  0.86551645  0.59768778     0.76000
O367        O  0.30700901  0.82596415  0.60104768    -0.57800
C368        C  0.25843377  0.81616323  0.59862377     0.76000
C369        C  0.28329161  0.83432541  0.56250665     0.78400
Cd370      Cd  0.28285011  0.83487604  0.59338343     1.37500
O371        O  0.27339083  0.85946371  0.59886646    -0.56600
O372        O  0.27419163  0.84113767  0.56968146    -0.55400
C373        C  0.30419904  0.82614691  0.61428902     0.78300
O374        O  0.29274877  0.82749466  0.56954789    -0.57800
O375        O  0.29596045  0.85747359  0.59495159    -0.56300
O376        O  0.26981960  0.81164887  0.59294538    -0.56200
O377        O  0.29154821  0.82949776  0.61759767    -0.55400
O378        O  0.26890232  0.59211242  0.82788426    -0.56600
C379        C  0.29521803  0.58521480  0.86058531     0.76000
O380        O  0.29943704  0.56486163  0.81349348    -0.57800
C381        C  0.26829736  0.59223837  0.81437069     0.76000
C382        C  0.31888738  0.60431740  0.82378308     0.78400
Cd383      Cd  0.29474110  0.58547618  0.82968045     1.37500
O384        O  0.28536573  0.59180985  0.85389000    -0.56600
O385        O  0.30675496  0.60924502  0.82709792    -0.55400
C386        C  0.29648009  0.55533637  0.82260763     0.78300
O387        O  0.31972996  0.59086523  0.82269416    -0.57800
O388        O  0.30462273  0.57921045  0.85306943    -0.56300
O389        O  0.27997159  0.59008038  0.80800418    -0.56200
O390        O  0.29283254  0.55973343  0.83480240    -0.55400
O391        O  0.17320485  0.73301225  0.59802926    -0.56600
C392        C  0.13239668  0.71573557  0.59949221     0.76000
O393        O  0.15934325  0.72079252  0.56868235    -0.57800
C394        C  0.18600433  0.72868624  0.59714773     0.76000
C395        C  0.16604528  0.68290886  0.60850390     0.78400
Cd396      Cd  0.16186793  0.70925583  0.59209642     1.37500
O397        O  0.13574625  0.70941214  0.58807743    -0.56600
O398        O  0.16558226  0.69513177  0.61431513    -0.55400
C399        C  0.16139348  0.70984573  0.56103842     0.78300
O400        O  0.16500916  0.68273640  0.59499940    -0.57800
O401        O  0.14267833  0.71940616  0.60761532    -0.56300
O402        O  0.18759958  0.71549970  0.59452993    -0.56200
O403        O  0.16391574  0.69824086  0.56764657    -0.55400
O404        O  0.17614921  0.59142701  0.73852168    -0.56600
C405        C  0.13390111  0.59366784  0.72176052     0.76000
O406        O  0.16753883  0.59631002  0.69032732    -0.57800
C407        C  0.18853365  0.58876205  0.73378582     0.76000
C408        C  0.16165116  0.55564619  0.71208158     0.78400
Cd409      Cd  0.16342364  0.58664453  0.71517798     1.37500
O410        O  0.14357864  0.59416456  0.73134282    -0.56600
O411        O  0.15849392  0.56232154  0.72333953    -0.55400
C412        C  0.16836842  0.60928285  0.69435409     0.78300
O413        O  0.16567613  0.56323987  0.70160682    -0.57800
O414        O  0.13787488  0.58995825  0.70941868    -0.56300
O415        O  0.18921657  0.58543711  0.72071178    -0.56200
O416        O  0.16740945  0.61148562  0.70763941    -0.55400
O417        O  0.59102121  0.30603481  0.99770935    -0.56600
C418        C  0.55267293  0.28212725  0.99398987     0.76000
O419        O  0.59085325  0.26177883  0.98001518    -0.57800
C420        C  0.60419538  0.30290607  0.99892067     0.76000
C421        C  0.58533315  0.27007320  0.02642948     0.78400
Cd422      Cd  0.58313757  0.28065800  0.99751816     1.37500
O423        O  0.55993412  0.29340219  0.99640374    -0.56600
O424        O  0.57834901  0.28112056  0.02288303    -0.55400
C425        C  0.59015151  0.27041156  0.96952685     0.78300
O426        O  0.59140786  0.26331564  0.01640179    -0.57800
O427        O  0.55952143  0.27048870  0.99310420    -0.56300
O428        O  0.60733906  0.28976718  0.99962144    -0.56200
O429        O  0.58615924  0.28303956  0.97227554    -0.55400
O430        O  0.68143722  0.43288894  0.99837541    -0.56600
C431        C  0.67187000  0.39187188  0.99644117     0.76000
O432        O  0.71473615  0.40281464  0.97912104    -0.57800
C433        C  0.69178742  0.44140838  0.99656690     0.76000
C434        C  0.70844337  0.40604639  0.02489779     0.78400
Cd435      Cd  0.69595716  0.41087598  0.99661603     1.37500
O436        O  0.67038397  0.40532094  0.99562590    -0.56600
O437        O  0.69517103  0.40531775  0.02230446    -0.55400
C438        C  0.70692506  0.40509430  0.96819355     0.78300
O439        O  0.71636960  0.40858414  0.01428103    -0.57800
O440        O  0.68457241  0.38713398  0.99730217    -0.56300
O441        O  0.70398552  0.43582857  0.99500406    -0.56200
O442        O  0.69443482  0.40957520  0.97057599    -0.55400
O443        O  0.59126306  0.25968892  0.17996707    -0.56600
C444        C  0.58635966  0.27248552  0.13756826     0.76000
O445        O  0.55856822  0.29297701  0.16836133    -0.57800
C446        C  0.58912319  0.26465318  0.19237119     0.76000
C447        C  0.60015485  0.30732549  0.16936570     0.78400
Cd448      Cd  0.58273138  0.28153919  0.16705506     1.37500
O449        O  0.59461078  0.26777551  0.14729349    -0.56600
O450        O  0.60564291  0.29498909  0.16847337    -0.55400
C451        C  0.55183426  0.28119743  0.16917378     0.78300
O452        O  0.58662325  0.30783636  0.16925345    -0.57800
O453        O  0.57677871  0.28109404  0.14153157    -0.56300
O454        O  0.58461191  0.27739167  0.19301634    -0.56200
O455        O  0.55932442  0.26993911  0.16919475    -0.55400
O456        O  0.58848456  0.14148465  0.28318384    -0.56600
C457        C  0.59150945  0.18293206  0.26907958     0.76000
O458        O  0.55876654  0.17595438  0.29983477    -0.57800
C459        C  0.58618697  0.13489992  0.29478435     0.76000
C460        C  0.60130859  0.17288650  0.31700655     0.78400
Cd461      Cd  0.58267533  0.16556282  0.29310189     1.37500
O462        O  0.59378766  0.16957989  0.26944621    -0.56600
O463        O  0.60606590  0.16917186  0.30495303    -0.55400
C464        C  0.55168981  0.16778605  0.29154202     0.78300
O465        O  0.58783725  0.17406760  0.31791501    -0.57800
O466        O  0.58564930  0.18831073  0.27996194    -0.56300
O467        O  0.58236073  0.14242306  0.30529011    -0.56200
O468        O  0.55884395  0.15896124  0.28433466    -0.55400
O469        O  0.71020850  0.38615049  0.14588396    -0.56600
C470        C  0.73289619  0.39960074  0.18421875     0.76000
O471        O  0.69018189  0.42125491  0.17475888    -0.57800
C472        C  0.71064267  0.39606811  0.13670910     0.76000
C473        C  0.68534320  0.38124068  0.17529419     0.78400
Cd474      Cd  0.70692732  0.40195217  0.16703184     1.37500
O475        O  0.73288830  0.39722452  0.17091595    -0.56600
O476        O  0.69776776  0.38121700  0.18079805    -0.55400
C477        C  0.69841276  0.43144367  0.17132775     0.78300
O478        O  0.68266463  0.39116403  0.16645024    -0.57800
O479        O  0.72092526  0.40262784  0.18962179    -0.56300
O480        O  0.70975153  0.40869451  0.14149446    -0.56200
O481        O  0.71023065  0.42795207  0.16590262    -0.55400
O482        O  0.82047468  0.40376758  0.26470799    -0.56600
C483        C  0.85936418  0.40821583  0.27507423     0.76000
O484        O  0.84219339  0.43089950  0.30107338    -0.57800
C485        C  0.80771609  0.40550101  0.26877332     0.76000
C486        C  0.82823639  0.39095276  0.31264776     0.78400
Cd487      Cd  0.83159799  0.41015288  0.28841244     1.37500
O488        O  0.85011161  0.41729941  0.27118802    -0.56600
O489        O  0.83109380  0.38618112  0.30033404    -0.55400
C490        C  0.83261928  0.43975395  0.29745528     0.78300
O491        O  0.82692658  0.40437810  0.31370239    -0.57800
O492        O  0.85558143  0.39941634  0.28462151    -0.56300
O493        O  0.80610711  0.40877428  0.28174390    -0.56200
O494        O  0.82218428  0.43483333  0.29026013    -0.55400
O495        O  0.73578190  0.17017005  0.40356918    -0.56600
C496        C  0.71424091  0.12932308  0.40652287     0.76000
O497        O  0.69874544  0.16643548  0.43173895    -0.57800
C498        C  0.73152169  0.18307214  0.40329001     0.76000
C499        C  0.69031707  0.16428499  0.38654022     0.78400
Cd500      Cd  0.71147081  0.16011858  0.40904170     1.37500
O501        O  0.72418642  0.13746837  0.40217489    -0.56600
O502        O  0.70305349  0.16045042  0.38421366    -0.55400
C503        C  0.70941749  0.16353359  0.43971990     0.78300
O504        O  0.68705264  0.16643327  0.39950168    -0.57800
O505        O  0.70358831  0.13537693  0.41211004    -0.56300
O506        O  0.71832071  0.18507936  0.40527294    -0.56200
O507        O  0.72059279  0.15928585  0.43353987    -0.55400
O508        O  0.85444812  0.27435552  0.40618108    -0.56600
C509        C  0.81407953  0.25928436  0.40532610     0.76000
O510        O  0.81442280  0.29697981  0.42744562    -0.57800
C511        C  0.86131335  0.28498492  0.41120870     0.76000
C512        C  0.82759357  0.30441714  0.38485888     0.78400
Cd513      Cd  0.83042285  0.28557871  0.40942323     1.37500
O514        O  0.82735404  0.25918639  0.40808946    -0.56600
O515        O  0.83225077  0.29177127  0.38395239    -0.55400
C516        C  0.82222486  0.29388150  0.43813548     0.78300
O517        O  0.82369633  0.30845464  0.39713100    -0.57800
O518        O  0.80832699  0.27148280  0.40417276    -0.56300
O519        O  0.85396193  0.29554369  0.41529574    -0.56200
O520        O  0.83360682  0.28711934  0.43553094    -0.55400
O521        O  0.59808396  0.68096730  0.99965958    -0.56600
C522        C  0.55996973  0.70152414  0.01005146     0.76000
O523        O  0.59597383  0.72562072  0.01914248    -0.57800
C524        C  0.61092256  0.68487025  0.99759343     0.76000
C525        C  0.58534797  0.71654828  0.97388249     0.78400
Cd526      Cd  0.58916394  0.70569487  0.00245764     1.37500
O527        O  0.56770388  0.69080005  0.00695639    -0.56600
O528        O  0.57761481  0.70694300  0.97932143    -0.55400
C529        C  0.59780182  0.71722159  0.02968946     0.78300
O530        O  0.59493315  0.72206141  0.98190524    -0.57800
O531        O  0.56586041  0.71373829  0.00979891    -0.56300
O532        O  0.61343128  0.69817919  0.99757644    -0.56200
O533        O  0.59619861  0.70398660  0.02725339    -0.55400
O534        O  0.68113173  0.58480967  0.99634993    -0.56600
C535        C  0.70849127  0.55214790  0.99377936     0.76000
O536        O  0.70614820  0.59057349  0.97306731    -0.57800
C537        C  0.68127199  0.59833152  0.99747045     0.76000
C538        C  0.71556265  0.58662508  0.02743572     0.78400
Cd539      Cd  0.70740722  0.58257360  0.99774405     1.37500
O540        O  0.69667425  0.55869610  0.99460809    -0.56600
O541        O  0.70598818  0.57799421  0.02322543    -0.55400
C542        C  0.71933946  0.59276468  0.97116179     0.78300
O543        O  0.72206220  0.59349829  0.01776099    -0.57800
O544        O  0.71973277  0.55970207  0.99440980    -0.56300
O545        O  0.69338655  0.60429788  0.99899459    -0.56200
O546        O  0.72752676  0.59053410  0.98183481    -0.55400
O547        O  0.56315702  0.98567672  0.31701893    -0.56600
C548        C  0.60141188  0.99220725  0.32777925     0.76000
O549        O  0.59662320  0.97919118  0.28745732    -0.57800
C550        C  0.55390080  0.99439387  0.31235136     0.76000
C551        C  0.58810413  0.02374716  0.29141445     0.78400
Cd552      Cd  0.58300515  0.99565128  0.30328918     1.37500
O553        O  0.58883030  0.99693525  0.32899799    -0.56600
O554        O  0.59052626  0.02067604  0.30435465    -0.55400
C555        C  0.58628319  0.97060496  0.28554135     0.78300
O556        O  0.58374213  0.01360347  0.28351181    -0.57800
O557        O  0.60538955  0.98898833  0.31530082    -0.56300
O558        O  0.55816728  0.00390365  0.30372734    -0.56200
O559        O  0.57443366  0.97425217  0.29078574    -0.55400
O560        O  0.69463318  0.98751296  0.39982788    -0.56600
C561        C  0.72184227  0.99300226  0.43473780     0.76000
O562        O  0.73698253  0.97204821  0.39321540    -0.57800
C563        C  0.69589526  0.98778024  0.38634227     0.76000
C564        C  0.72863554  0.01899150  0.39769375     0.78400
Cd565      Cd  0.72053800  0.98997565  0.40439163     1.37500
O566        O  0.70992953  0.99162149  0.42823410    -0.56600
O567        O  0.71615307  0.01518809  0.40115887    -0.55400
C568        C  0.73163439  0.96146992  0.39984561     0.78300
O569        O  0.73792893  0.00910355  0.39684455    -0.57800
O570        O  0.73300953  0.99279076  0.42720609    -0.56300
O571        O  0.70841424  0.98889449  0.38144623    -0.56200
O572        O  0.72184035  0.96428723  0.40862797    -0.55400
O573        O  0.72838002  0.81113089  0.39913705    -0.56600
C574        C  0.72268921  0.85051016  0.40578043     0.76000
O575        O  0.68048563  0.82302330  0.40313532    -0.57800
C576        C  0.72409717  0.79874958  0.40260697     0.76000
C577        C  0.69892796  0.82579836  0.43721157     0.78400
Cd578      Cd  0.70662859  0.82392978  0.40751208     1.37500
O579        O  0.72478477  0.84139442  0.41553282    -0.56600
O580        O  0.69567662  0.83545371  0.42830300    -0.55400
C581        C  0.68097322  0.82287047  0.38966110     0.78300
O582        O  0.70509241  0.81480568  0.43231365    -0.57800
O583        O  0.71374886  0.84706373  0.39610137    -0.56300
O584        O  0.71165472  0.79795855  0.40771245    -0.56200
O585        O  0.69333588  0.82303778  0.38424827    -0.55400
O586        O  0.82336259  0.72709959  0.40073993    -0.56600
C587        C  0.85929301  0.70318939  0.40682441     0.76000
O588        O  0.81935164  0.68758318  0.42737915    -0.57800
C589        C  0.80989021  0.72615740  0.40148004     0.76000
C590        C  0.82239556  0.67923549  0.38633914     0.78400
Cd591      Cd  0.82834517  0.70175283  0.40698630     1.37500
O592        O  0.85236307  0.69425649  0.41415265    -0.56600
O593        O  0.82769824  0.69108625  0.38247718    -0.55400
C594        C  0.82309539  0.69646399  0.43692226     0.78300
O595        O  0.81952397  0.67802986  0.39943058    -0.57800
O596        O  0.85198944  0.71185311  0.39934326    -0.56300
O597        O  0.80489422  0.71391677  0.40440662    -0.56200
O598        O  0.82907419  0.70785162  0.43264590    -0.55400
O599        O  0.58940659  0.82637193  0.26088484    -0.56600
C600        C  0.58317598  0.86147164  0.28590006     0.76000
O601        O  0.56037101  0.82044770  0.29753742    -0.57800
C602        C  0.58806554  0.81288012  0.26146663     0.76000
C603        C  0.60575141  0.82397926  0.30582080     0.78400
Cd604      Cd  0.58257718  0.83059003  0.28601074     1.37500
O605        O  0.58795778  0.85445426  0.27540177    -0.56600
O606        O  0.60769194  0.82619207  0.29267375    -0.55400
C607        C  0.55205869  0.82532018  0.28789123     0.78300
O608        O  0.59289737  0.82430350  0.31003041    -0.57800
O609        O  0.57868268  0.85426818  0.29636252    -0.56300
O610        O  0.58443550  0.80765000  0.27339003    -0.56200
O611        O  0.55786231  0.83225515  0.27792458    -0.55400
O612        O  0.82695868  0.58185413  0.25793686    -0.56600
C613        C  0.86317726  0.58210614  0.28583852     0.76000
O614        O  0.82504359  0.59340691  0.30628484    -0.57800
C615        C  0.81351756  0.58307276  0.25919753     0.76000
C616        C  0.82699557  0.55150763  0.29272656     0.78400
Cd617      Cd  0.83227957  0.58073099  0.28415887     1.37500
O618        O  0.85527539  0.57936269  0.29635753    -0.56600
O619        O  0.81988101  0.56172393  0.29798232    -0.55400
C620        C  0.82736628  0.60586349  0.30143076     0.78300
O621        O  0.83636733  0.55483403  0.28364890    -0.57800
O622        O  0.85690690  0.58415250  0.27390914    -0.56300
O623        O  0.80886572  0.58345200  0.27183418    -0.56200
O624        O  0.83137990  0.60665007  0.28859359    -0.55400
O625        O  0.59587146  0.71801595  0.14733571    -0.56600
C626        C  0.58878095  0.72495742  0.19161982     0.76000
O627        O  0.56376837  0.69211734  0.17358408    -0.57800
C628        C  0.59429632  0.70740062  0.13897592     0.76000
C629        C  0.60880192  0.68315853  0.17609509     0.78400
Cd630      Cd  0.58722269  0.70428861  0.16878397     1.37500
O631        O  0.59313307  0.72818348  0.17922106    -0.56600
O632        O  0.61123924  0.69648097  0.17648326    -0.55400
C633        C  0.55642554  0.70151695  0.16703536     0.78300
O634        O  0.59607287  0.67940047  0.17305526    -0.57800
O635        O  0.58409028  0.71236479  0.19332577    -0.56300
O636        O  0.58960533  0.69596802  0.14441973    -0.56200
O637        O  0.56328069  0.71173238  0.16146764    -0.55400
O638        O  0.72517968  0.58274095  0.17875597    -0.56600
C639        C  0.70321244  0.57783789  0.13828827     0.76000
O640        O  0.69182645  0.54996077  0.17470573    -0.57800
C641        C  0.72242255  0.57941754  0.19158997     0.76000
C642        C  0.67720799  0.59328198  0.17449152     0.78400
Cd643      Cd  0.70136053  0.57447492  0.16896852     1.37500
O644        O  0.71242738  0.58392273  0.14632635    -0.56600
O645        O  0.68954828  0.59807296  0.17165127    -0.55400
C646        C  0.70261658  0.54356482  0.16961283     0.78300
O647        O  0.67602843  0.57977761  0.17526807    -0.57800
O648        O  0.69351007  0.57078117  0.14443514    -0.56300
O649        O  0.71002390  0.57452424  0.19386495    -0.56200
O650        O  0.71231297  0.55137105  0.16440853    -0.55400
O651        O  0.31727706  0.58296725  0.00540425    -0.56600
C652        C  0.28729395  0.55220427  0.00655887     0.76000
O653        O  0.27122867  0.59092089  0.01750732    -0.57800
C654        C  0.31842510  0.59628078  0.00302483     0.76000
C655        C  0.28368767  0.58695525  0.97228215     0.78400
Cd656      Cd  0.29115690  0.58238007  0.00204470     1.37500
O657        O  0.29967801  0.55767674  0.00573641    -0.56600
O658        O  0.29340682  0.57849757  0.97645636    -0.55400
C659        C  0.27925245  0.59284393  0.02835309     0.78300
O660        O  0.27685258  0.59341877  0.98198568    -0.57800
O661        O  0.27681585  0.56063491  0.00519830    -0.56300
O662        O  0.30700218  0.60301095  0.00005237    -0.56200
O663        O  0.29248425  0.59088463  0.02659854    -0.55400
O664        O  0.40988858  0.67082244  0.00522893    -0.56600
C665        C  0.45044437  0.68790615  0.00609775     0.76000
O666        O  0.41944321  0.71392352  0.98463639    -0.57800
C667        C  0.39714932  0.67547032  0.00455750     0.76000
C668        C  0.41580144  0.70812737  0.03131511     0.78400
Cd669      Cd  0.42071403  0.69504234  0.00388651     1.37500
O670        O  0.44094482  0.67824596  0.00491146    -0.56600
O671        O  0.40992659  0.71326563  0.02016144    -0.55400
C672        C  0.41921954  0.70477388  0.97458852     0.78300
O673        O  0.42425426  0.69775024  0.02952157    -0.57800
O674        O  0.44617312  0.70079020  0.00609211    -0.56300
O675        O  0.39554271  0.68887993  0.00392988    -0.56200
O676        O  0.41972531  0.69177494  0.97828612    -0.55400
O677        O  0.00783638  0.59283015  0.32158433    -0.56600
C678        C  0.00105228  0.54217985  0.30855115     0.76000
O679        O  0.98536822  0.57677422  0.28455142    -0.57800
C680        C  0.00081669  0.58862763  0.33229745     0.76000
C681        C  0.02957783  0.57929115  0.29640007     0.78400
Cd682      Cd  0.00109967  0.57274474  0.30618029     1.37500
O683        O  0.99972579  0.55007028  0.31941756    -0.56600
O684        O  0.01893686  0.58631968  0.29165333    -0.55400
C685        C  0.97436722  0.57984315  0.29170963     0.78300
O686        O  0.02685236  0.56936676  0.30516560    -0.57800
O687        O  0.00214350  0.54842330  0.29661692    -0.56300
O688        O  0.99421393  0.57684919  0.33109844    -0.56200
O689        O  0.97605781  0.58031002  0.30509032    -0.55400
O690        O  0.99774095  0.69441014  0.43779961    -0.56600
C691        C  0.00246575  0.67507645  0.40173265     0.76000
O692        O  0.97370866  0.69988497  0.41020401    -0.57800
C693        C  0.99652881  0.70666019  0.44348754     0.76000
C694        C  0.02619715  0.71583456  0.40439733     0.78400
Cd695      Cd  0.99914704  0.70341916  0.41308340     1.37500
O696        O  0.00718099  0.67821434  0.41405429    -0.56600
O697        O  0.01587856  0.71493665  0.39555998    -0.55400
C698        C  0.97055990  0.71186269  0.40475283     0.78300
O699        O  0.02358115  0.71204400  0.41704827    -0.57800
O700        O  0.99622955  0.68494190  0.39485056    -0.56300
O701        O  0.99645783  0.71732076  0.43513488    -0.56200
O702        O  0.98088201  0.72049388  0.40283622    -0.55400
O703        O  0.27825483  0.60581423  0.14964744    -0.56600
C704        C  0.26795129  0.59208689  0.19301947     0.76000
O705        O  0.29674238  0.56335932  0.16799239    -0.57800
C706        C  0.27844441  0.59708239  0.13932956     0.76000
C707        C  0.31317059  0.60322871  0.17214992     0.78400
Cd708      Cd  0.28598847  0.58799648  0.16810790     1.37500
O709        O  0.26361429  0.59595934  0.18074644    -0.56600
O710        O  0.30117513  0.60938093  0.17306410    -0.55400
C711        C  0.28485236  0.55694617  0.16620300     0.78300
O712        O  0.31276735  0.58986141  0.16984234    -0.57800
O713        O  0.28041680  0.58689654  0.19368463    -0.56300
O714        O  0.28140092  0.58426048  0.14241806    -0.56200
O715        O  0.27385699  0.56479228  0.16535446    -0.55400
O716        O  0.17495605  0.59174636  0.27209216    -0.56600
C717        C  0.14183070  0.58052874  0.29840721     0.76000
O718        O  0.18446904  0.56101087  0.30767358    -0.57800
C719        C  0.18847035  0.59124103  0.27161623     0.76000
C720        C  0.17826389  0.60281069  0.32020245     0.78400
Cd721      Cd  0.17271828  0.58251839  0.29694351     1.37500
O722        O  0.15011233  0.57553917  0.30790830    -0.56600
O723        O  0.17140503  0.60643368  0.30904877    -0.55400
C724        C  0.17932952  0.55210778  0.29878730     0.78300
O725        O  0.18311967  0.59017631  0.32033468    -0.57800
O726        O  0.14771014  0.58670811  0.28792964    -0.56300
O727        O  0.19478543  0.58724084  0.28295510    -0.56200
O728        O  0.17157681  0.55726092  0.28890304    -0.55400
O729        O  0.41041093  0.72824973  0.18487647    -0.56600
C730        C  0.41479897  0.71378112  0.14289758     0.76000
O731        O  0.43521724  0.68751839  0.17936757    -0.57800
C732        C  0.41359215  0.72389150  0.19733039     0.76000
C733        C  0.39076876  0.68602747  0.17451518     0.78400
Cd734      Cd  0.41573568  0.70478497  0.17264855     1.37500
O735        O  0.41792685  0.72252539  0.15280254    -0.56600
O736        O  0.38978029  0.69951022  0.17352569    -0.55400
C737        C  0.44523923  0.69491234  0.17409272     0.78300
O738        O  0.40335994  0.68098401  0.17482719    -0.57800
O739        O  0.41151068  0.70122102  0.14675577    -0.56300
O740        O  0.41752621  0.71099244  0.19829370    -0.56200
O741        O  0.44158576  0.70648373  0.16810861    -0.55400
O742        O  0.40817191  0.85052845  0.28787252    -0.56600
C743        C  0.40726556  0.80823435  0.27248091     0.76000
O744        O  0.43217213  0.81494848  0.31197503    -0.57800
C745        C  0.41360799  0.85681025  0.29864841     0.76000
C746        C  0.38758432  0.82148379  0.31670170     0.78400
Cd747      Cd  0.41190756  0.82575263  0.29785760     1.37500
O748        O  0.40802052  0.82176477  0.27186616    -0.56600
O749        O  0.38637113  0.82631346  0.30413350    -0.55400
C750        C  0.44168599  0.81844599  0.30305105     0.78300
O751        O  0.40009706  0.81792946  0.32067754    -0.57800
O752        O  0.40794282  0.80277131  0.28485685    -0.56300
O753        O  0.41810069  0.84885434  0.30862992    -0.56200
O754        O  0.43736927  0.82505802  0.29204402    -0.55400
O755        O  0.14742675  0.72576095  0.41804666    -0.56600
C756        C  0.19175446  0.72490834  0.41633249     0.76000
O757        O  0.16795017  0.69019120  0.43972347    -0.57800
C758        C  0.13734433  0.71749712  0.41423422     0.76000
C759        C  0.17005273  0.68733387  0.39508895     0.78400
Cd760      Cd  0.16634923  0.70707266  0.41885391     1.37500
O761        O  0.17942875  0.72970795  0.41329230    -0.56600
O762        O  0.16864230  0.70071391  0.39351818    -0.55400
C763        C  0.16564847  0.69966268  0.44911164     0.78300
O764        O  0.16990934  0.68272163  0.40784407    -0.57800
O765        O  0.19233413  0.71198655  0.42030748    -0.56300
O766        O  0.14063868  0.70451041  0.41229664    -0.56200
O767        O  0.16360862  0.71221843  0.44452384    -0.55400
O768        O  0.26626535  0.82229125  0.41165683    -0.56600
C769        C  0.28830258  0.85898608  0.41617299     0.76000
O770        O  0.30372989  0.82141912  0.44248663    -0.57800
C771        C  0.26689988  0.80898123  0.41399930     0.76000
C772        C  0.31405456  0.82087529  0.40126392     0.78400
Cd773      Cd  0.29066945  0.82822053  0.42027464     1.37500
O774        O  0.27779708  0.85080080  0.41353385    -0.56600
O775        O  0.30204955  0.82496813  0.39638634    -0.55400
C776        C  0.29432740  0.82574198  0.45106366     0.78300
O777        O  0.31502105  0.81963459  0.41467742    -0.57800
O778        O  0.29963218  0.85302162  0.42057701    -0.56300
O779        O  0.27868828  0.80432042  0.41887150    -0.56200
O780        O  0.28317256  0.83110407  0.44549684    -0.55400
O781        O  0.31006496  0.40552392  0.99126468    -0.56600
C782        C  0.29362415  0.44104102  0.00692625     0.76000
O783        O  0.27797694  0.41934921  0.97767034    -0.57800
C784        C  0.31119361  0.39374238  0.99784533     0.76000
C785        C  0.27342028  0.40522813  0.02817288     0.78400
Cd786      Cd  0.28646229  0.41162227  0.00121887     1.37500
O787        O  0.30318340  0.43185408  0.00437126    -0.56600
O788        O  0.28646270  0.40290943  0.02560467    -0.55400
C789        C  0.27241584  0.40759980  0.97387058     0.78300
O790        O  0.26577022  0.40959694  0.01780183    -0.57800
O791        O  0.28082912  0.43660285  0.00698959    -0.56300
O792        O  0.30098327  0.39031735  0.00594409    -0.56200
O793        O  0.27215978  0.39779648  0.98320130    -0.55400
O794        O  0.38922113  0.30705991  0.99820753    -0.56600
C795        C  0.44231484  0.29828750  0.00082118     0.76000
O796        O  0.39682635  0.27833612  0.01704699    -0.57800
C797        C  0.39297886  0.31843624  0.00453870     0.76000
C798        C  0.40811403  0.28534804  0.97219223     0.78400
Cd799      Cd  0.41182105  0.29419303  0.00157305     1.37500
O800        O  0.43399487  0.30833565  0.00442129    -0.56600
O801        O  0.40587945  0.27647158  0.98220470    -0.55400
C802        C  0.40551211  0.27837724  0.02750782     0.78300
O803        O  0.41176376  0.29786396  0.97591755    -0.57800
O804        O  0.43654104  0.28638315  0.99768075    -0.56300
O805        O  0.40563420  0.31881968  0.00947348    -0.56200
O806        O  0.41737460  0.28450564  0.02546512    -0.55400
O807        O  0.28894707  0.99710435  0.43800451    -0.56600
C808        C  0.30054515  0.99987976  0.39407018     0.76000
O809        O  0.26053830  0.97883258  0.40610573    -0.57800
C810        C  0.27716121  0.99632077  0.44462586     0.76000
C811        C  0.26817551  0.02703021  0.41193583     0.78400
Cd812      Cd  0.27781497  0.99799815  0.41427867     1.37500
O813        O  0.30329927  0.99864526  0.40733101    -0.56600
O814        O  0.27920941  0.02318784  0.41887030    -0.55400
C815        C  0.26942035  0.96889056  0.40898850     0.78300
O816        O  0.26089773  0.01714834  0.40589750    -0.57800
O817        O  0.28748117  0.00029552  0.39038726    -0.56300
O818        O  0.26577873  0.99628177  0.43715849    -0.56200
O819        O  0.28144035  0.97272179  0.41403666    -0.55400
O820        O  0.40666029  0.99671921  0.33453161    -0.56600
C821        C  0.44295385  0.00147424  0.31529861     0.76000
O822        O  0.40346074  0.97965338  0.29179453    -0.57800
C823        C  0.39329044  0.99761007  0.33240222     0.76000
C824        C  0.40810254  0.02475238  0.29403410     0.78400
Cd825      Cd  0.41298916  0.99805129  0.30908761     1.37500
O826        O  0.43359698  0.00623373  0.32370500    -0.56600
O827        O  0.40530519  0.02282486  0.30705621    -0.55400
C828        C  0.40889247  0.96911591  0.29845161     0.78300
O829        O  0.41267341  0.01393836  0.28730599    -0.57800
O830        O  0.43844915  0.99513315  0.30418574    -0.56300
O831        O  0.38907571  0.99848215  0.31952448    -0.56200
O832        O  0.41595544  0.97208069  0.30966253    -0.55400
O833        O  0.00243714  0.31731297  0.40648204    -0.56600
C834        C  0.00444176  0.29003769  0.44043918     0.76000
O835        O  0.98314453  0.27431461  0.39987893    -0.57800
C836        C  0.99961180  0.31675165  0.39323637     0.76000
C837        C  0.02929171  0.28103713  0.40222812     0.78400
Cd838      Cd  0.00147815  0.29122250  0.41006111     1.37500
O839        O  0.00204067  0.30180902  0.43412001    -0.56600
O840        O  0.02673687  0.29366679  0.40630975    -0.55400
C841        C  0.97284479  0.28029414  0.40628856     0.78300
O842        O  0.01863834  0.27261114  0.40127444    -0.57800
O843        O  0.00556491  0.27900954  0.43270374    -0.56300
O844        O  0.99775173  0.30442566  0.38785612    -0.56200
O845        O  0.97602141  0.29078304  0.41426072    -0.55400
O846        O  0.00014995  0.42589155  0.29569368    -0.56600
C847        C  0.99410968  0.38374670  0.30534356     0.76000
O848        O  0.97346791  0.40993793  0.27857003    -0.57800
C849        C  0.00170571  0.43353315  0.28459832     0.76000
C850        C  0.02729835  0.39693215  0.27397614     0.78400
Cd851      Cd  0.99841913  0.40334939  0.28243635     1.37500
O852        O  0.99504543  0.39707780  0.30785083    -0.56600
O853        O  0.01739767  0.39751581  0.26459020    -0.55400
C854        C  0.97039092  0.40023607  0.26962561     0.78300
O855        O  0.02360012  0.39883268  0.28678437    -0.57800
O856        O  0.99511273  0.37979287  0.29248308    -0.56300
O857        O  0.00164446  0.42716694  0.27265928    -0.56200
O858        O  0.98061560  0.39231815  0.26561089    -0.55400
O859        O  0.40224393  0.26306800  0.18072612    -0.56600
C860        C  0.40779903  0.27428321  0.13859844     0.76000
O861        O  0.39931691  0.30951551  0.17111142    -0.57800
C862        C  0.40607648  0.26754558  0.19296506     0.76000
C863        C  0.43989866  0.29282065  0.16820025     0.78400
Cd864      Cd  0.40971586  0.28512987  0.16765220     1.37500
O865        O  0.41147712  0.26630294  0.14889999    -0.56600
O866        O  0.43545731  0.28004030  0.16848390    -0.55400
C867        C  0.38635431  0.30551279  0.17016236     0.78300
O868        O  0.43036136  0.30243585  0.16777679    -0.57800
O869        O  0.40450035  0.28701089  0.14174795    -0.56300
O870        O  0.41109755  0.28012166  0.19351446    -0.56200
O871        O  0.38424782  0.29224179  0.16829924    -0.55400
O872        O  0.40473042  0.17022308  0.26767011    -0.56600
C873        C  0.40796981  0.13539984  0.29351190     0.76000
O874        O  0.43014875  0.17794067  0.30686304    -0.57800
C875        C  0.40532698  0.18376074  0.26810328     0.76000
C876        C  0.38602392  0.17219311  0.31200197     0.78400
Cd877      Cd  0.40994486  0.16634643  0.29335089     1.37500
O878        O  0.40601665  0.14229706  0.28200680    -0.56600
O879        O  0.38440830  0.16955634  0.29884250    -0.55400
C880        C  0.43992733  0.17237406  0.29943311     0.78300
O881        O  0.39880823  0.17287555  0.31660247    -0.57800
O882        O  0.41105563  0.14270138  0.30448050    -0.56300
O883        O  0.40787856  0.18930935  0.28021358    -0.56200
O884        O  0.43583912  0.16401475  0.28956189    -0.55400
O885        O  0.26834714  0.40973418  0.17837062    -0.56600
C886        C  0.28243083  0.40577981  0.13885035     0.76000
O887        O  0.30714674  0.43557780  0.17154706    -0.57800
C888        C  0.27285017  0.40982844  0.19116534     0.76000
C889        C  0.31746459  0.39523466  0.16952511     0.78400
Cd890      Cd  0.29227656  0.41366600  0.16735483     1.37500
O891        O  0.28322843  0.39680031  0.14890512    -0.56600
O892        O  0.30526253  0.39117827  0.17366816    -0.55400
C893        C  0.29733094  0.44446252  0.16855852     0.78300
O894        O  0.31823454  0.40795090  0.16488416    -0.57800
O895        O  0.28574510  0.41854089  0.14195872    -0.56300
O896        O  0.28619619  0.41136094  0.19291854    -0.56200
O897        O  0.28530336  0.43917174  0.16511562    -0.55400
O898        O  0.14417327  0.40881098  0.29772097    -0.56600
C899        C  0.18677621  0.40496407  0.26312242     0.76000
O900        O  0.17629242  0.43348607  0.29635791    -0.57800
C901        C  0.13771675  0.40365107  0.28695703     0.76000
C902        C  0.17691340  0.39103735  0.31104993     0.78400
Cd903      Cd  0.16808929  0.40949669  0.28743964     1.37500
O904        O  0.17426629  0.39975617  0.26342234    -0.56600
O905        O  0.17299231  0.38597030  0.29909173    -0.55400
C906        C  0.16758928  0.44054393  0.28865140     0.78300
O907        O  0.17739866  0.40454879  0.31193720    -0.57800
O908        O  0.19077696  0.41179889  0.27413155    -0.56300
O909        O  0.14527761  0.40100008  0.27610361    -0.56200
O910        O  0.15916408  0.43332051  0.28083238    -0.55400
O911        O  0.27796869  0.14510477  0.41180946    -0.56600
C912        C  0.27169528  0.18904231  0.40847773     0.76000
O913        O  0.30359684  0.17294815  0.44155785    -0.57800
C914        C  0.28726995  0.13677144  0.41714744     0.76000
C915        C  0.31576647  0.17169228  0.39943414     0.78400
Cd916      Cd  0.29163409  0.16745476  0.41811715     1.37500
O917        O  0.26783408  0.17607405  0.40962674    -0.56600
O918        O  0.30386418  0.16697716  0.39481705    -0.55400
C919        C  0.29206922  0.17342278  0.44853571     0.78300
O920        O  0.31652386  0.17452227  0.41264734    -0.57800
O921        O  0.28469512  0.19178878  0.41119048    -0.56300
O922        O  0.29827647  0.14258776  0.42253012    -0.56200
O923        O  0.28065741  0.17125116  0.44152602    -0.55400
O924        O  0.17381993  0.26176733  0.40477547    -0.56600
C925        C  0.14040285  0.28915500  0.40496795     0.76000
O926        O  0.18194519  0.30233734  0.42797295    -0.57800
C927        C  0.18736101  0.26172649  0.40503560     0.76000
C928        C  0.17950247  0.30572621  0.38400143     0.78400
Cd929      Cd  0.17126509  0.28796841  0.40798643     1.37500
O930        O  0.14785370  0.29981720  0.40877857    -0.56600
O931        O  0.17611976  0.29268839  0.38259212    -0.55400
C932        C  0.17653547  0.29488139  0.43784497     0.78300
O933        O  0.17975703  0.31058194  0.39663352    -0.57800
O934        O  0.14713055  0.27769290  0.40245595    -0.56300
O935        O  0.19346010  0.27376528  0.40657810    -0.56200
O936        O  0.16888297  0.28437940  0.43390566    -0.55400
C937        C  0.21861543  0.23497493  0.40164936     0.19900
C938        C  0.23199958  0.23559226  0.39501815    -0.18200
C939        C  0.24122605  0.22383207  0.39536276    -0.10500
C940        C  0.23736536  0.21122195  0.40261541     0.22100
C941        C  0.22376036  0.21040724  0.40880543    -0.19800
C942        C  0.21448762  0.22216966  0.40840748    -0.10700
C943        C  0.24741778  0.19898017  0.40438820    -0.14800
C944        C  0.26173262  0.20067074  0.40458413    -0.28700
C945        C  0.20979059  0.24819604  0.40216114    -0.03000
C946        C  0.19550177  0.24823785  0.40381676    -0.39500
H947        H  0.23539886  0.24528516  0.38966457     0.13300
H948        H  0.25139972  0.22472952  0.39001737     0.12900
H949        H  0.22049866  0.20081636  0.41442223     0.12300
H950        H  0.20437742  0.22135716  0.41388004     0.12600
H951        H  0.24293735  0.18854208  0.40692137     0.15300
H952        H  0.26639756  0.21120714  0.40308965     0.14100
H953        H  0.21533080  0.25836683  0.40095324     0.11800
H954        H  0.18956891  0.23824490  0.40417495     0.13800
C955        C  0.18330641  0.33850011  0.35910288     0.19900
C956        C  0.18827122  0.35266480  0.36032971    -0.18200
C957        C  0.18727859  0.36217028  0.34875637    -0.10500
C958        C  0.18108768  0.35774818  0.33567514     0.22100
C959        C  0.17632498  0.34351952  0.33443135    -0.19800
C960        C  0.17733330  0.33404185  0.34596251    -0.10700
C961        C  0.17910085  0.36747164  0.32311012    -0.14800
C962        C  0.18040926  0.38186098  0.32353281    -0.28700
C963        C  0.18338735  0.32907319  0.37198505    -0.03000
C964        C  0.18229433  0.31469345  0.37132060    -0.39500
H965        H  0.19284334  0.35642959  0.37032670     0.13300
H966        H  0.19136041  0.37291245  0.35020826     0.12900
H967        H  0.17146583  0.33977868  0.32455872     0.12300
H968        H  0.17292614  0.32340689  0.34460331     0.12600
H969        H  0.17568649  0.36255350  0.31311744     0.15300
H970        H  0.18335997  0.38726922  0.33336291     0.14100
H971        H  0.18375025  0.33422277  0.38239308     0.11800
H972        H  0.18242596  0.30926762  0.36108641     0.13800
C973        C  0.21910474  0.40838088  0.23753594     0.19900
C974        C  0.23337029  0.41273370  0.23963152    -0.18200
C975        C  0.24315103  0.41247269  0.22842437    -0.10500
C976        C  0.23892577  0.40781518  0.21470759     0.22100
C977        C  0.22461193  0.40358826  0.21254153    -0.19800
C978        C  0.21480358  0.40382523  0.22379514    -0.10700
C979        C  0.24886529  0.40798174  0.20229119    -0.14800
C980        C  0.26325171  0.40852223  0.20357977    -0.28700
C981        C  0.20914369  0.40937701  0.24988395    -0.03000
C982        C  0.19607388  0.40324245  0.25048852    -0.39500
H983        H  0.23697449  0.41648499  0.25001376     0.13300
H984        H  0.25388342  0.41631007  0.23056372     0.12900
H985        H  0.22097088  0.40016372  0.20206032     0.12300
H986        H  0.20386000  0.40071083  0.22154535     0.12600
H987        H  0.24412077  0.40769786  0.19164559     0.15300
H988        H  0.26833448  0.40827917  0.21403362     0.14100
H989        H  0.21292547  0.41538034  0.25913366     0.11800
H990        H  0.19197673  0.39688536  0.24166076     0.13800
C991        C  0.36222704  0.17489012  0.34568777     0.19900
C992        C  0.36508096  0.17585336  0.36043225    -0.18200
C993        C  0.35404721  0.17479684  0.37040385    -0.10500
C994        C  0.33976492  0.17281215  0.36585093     0.22100
C995        C  0.33688270  0.17201194  0.35112248    -0.19800
C996        C  0.34789891  0.17306923  0.34115912    -0.10700
C997        C  0.32758898  0.17102883  0.37591674    -0.14800
C998        C  0.32824087  0.17380573  0.39004347    -0.28700
C999        C  0.37459140  0.17513836  0.33563956    -0.03000
C1000       C  0.37344034  0.17384224  0.32132373    -0.39500
H1001       H  0.37596878  0.17717329  0.36429944     0.13300
H1002       H  0.35690355  0.17522254  0.38160487     0.12900
H1003       H  0.32602084  0.17045322  0.34727143     0.12300
H1004       H  0.34498609  0.17223421  0.33000801     0.12600
H1005       H  0.31746725  0.16738632  0.37138376     0.15300
H1006       H  0.33796904  0.17784788  0.39497285     0.14100
H1007       H  0.38525315  0.17579849  0.34034083     0.11800
H1008       H  0.36308240  0.17312775  0.31611399     0.13800
C1009       C  0.36371585  0.34038680  0.17177472     0.19900
C1010       C  0.36613681  0.35451843  0.16723788    -0.18200
C1011       C  0.35520115  0.36477287  0.16755483    -0.10500
C1012       C  0.34148818  0.36119820  0.17261276     0.22100
C1013       C  0.33911124  0.34705470  0.17723781    -0.19800
C1014       C  0.35004347  0.33678852  0.17686542    -0.10700
C1015       C  0.32928712  0.37161578  0.17304994    -0.14800
C1016       C  0.33017078  0.38569201  0.16975409    -0.28700
C1017       C  0.37582642  0.32993562  0.17136920    -0.03000
C1018       C  0.37412815  0.31558461  0.17108385    -0.39500
H1019       H  0.37654845  0.35763383  0.16329952     0.13300
H1020       H  0.35765169  0.37539431  0.16372575     0.12900
H1021       H  0.32872702  0.34391853  0.18122781     0.12300
H1022       H  0.34776275  0.32614836  0.18081474     0.12600
H1023       H  0.31891603  0.36737885  0.17609832     0.15300
H1024       H  0.34025406  0.39044602  0.16668984     0.14100
H1025       H  0.38659434  0.33427956  0.17068618     0.11800
H1026       H  0.36347849  0.31095320  0.17095682     0.13800
C1027       C  0.40227422  0.21630831  0.24235981     0.19900
C1028       C  0.40211265  0.23122255  0.24439129    -0.18200
C1029       C  0.40152049  0.24061918  0.23274415    -0.10500
C1030       C  0.40117207  0.23532061  0.21865828     0.22100
C1031       C  0.40097157  0.22041865  0.21661874    -0.19800
C1032       C  0.40157001  0.21101095  0.22826599    -0.10700
C1033       C  0.40104456  0.24484560  0.20582604    -0.14800
C1034       C  0.40512222  0.25870453  0.20604943    -0.28700
C1035       C  0.40356804  0.20689298  0.25523810    -0.03000
C1036       C  0.40329095  0.19244718  0.25501443    -0.39500
H1037       H  0.40251828  0.23566552  0.25507721     0.13300
H1038       H  0.40124198  0.25198121  0.23491553     0.12900
H1039       H  0.40060356  0.21600522  0.20591917     0.12300
H1040       H  0.40167646  0.19967578  0.22601852     0.12600
H1041       H  0.39821437  0.24002447  0.19561148     0.15300
H1042       H  0.40864943  0.26367961  0.21593490     0.14100
H1043       H  0.40499525  0.21218859  0.26549525     0.11800
H1044       H  0.40167723  0.18664060  0.24512534     0.13800
C1045       C  0.09850553  0.39458100  0.27696023     0.19900
C1046       C  0.08991623  0.39687800  0.26477421    -0.18200
C1047       C  0.07494362  0.39610284  0.26558361    -0.10500
C1048       C  0.06829660  0.39280357  0.27861838     0.22100
C1049       C  0.07697227  0.38983717  0.29059174    -0.19800
C1050       C  0.09186145  0.39063500  0.28978498    -0.10700
C1051       C  0.05252238  0.39336694  0.28072135    -0.14800
C1052       C  0.04250318  0.39459459  0.27030049    -0.28700
C1053       C  0.11429448  0.39660629  0.27613208    -0.03000
C1054       C  0.12215792  0.40100312  0.28744928    -0.39500
H1055       H  0.09477909  0.39978070  0.25473177     0.13300
H1056       H  0.06871090  0.39856048  0.25611036     0.12900
H1057       H  0.07219801  0.38713648  0.30073840     0.12300
H1058       H  0.09811418  0.38821890  0.29927184     0.12600
H1059       H  0.04896451  0.39316876  0.29173826     0.15300
H1060       H  0.04538017  0.39437719  0.25912301     0.14100
H1061       H  0.11941061  0.39527008  0.26584767     0.11800
H1062       H  0.11697544  0.40328659  0.29751553     0.13800
C1063       C  0.10026418  0.28080962  0.39889854     0.19900
C1064       C  0.09134384  0.26896183  0.40148226    -0.18200
C1065       C  0.07639577  0.27035759  0.40090109    -0.10500
C1066       C  0.07014256  0.28365388  0.39755387     0.22100
C1067       C  0.07909908  0.29528996  0.39441336    -0.19800
C1068       C  0.09394137  0.29389879  0.39498182    -0.10700
C1069       C  0.05455089  0.28647656  0.39849146    -0.14800
C1070       C  0.04411071  0.27652046  0.39917513    -0.28700
C1071       C  0.11607872  0.27927585  0.40029795    -0.03000
C1072       C  0.12472026  0.29040146  0.40355733    -0.39500
H1073       H  0.09594868  0.25872079  0.40437402     0.13300
H1074       H  0.06986609  0.26117713  0.40356207     0.12900
H1075       H  0.07458525  0.30563099  0.39171883     0.12300
H1076       H  0.10039022  0.30313880  0.39232412     0.12600
H1077       H  0.05151428  0.29769646  0.39904500     0.15300
H1078       H  0.04640933  0.26520858  0.39798522     0.14100
H1079       H  0.12066068  0.26865871  0.39915888     0.11800
H1080       H  0.12021538  0.30088775  0.40561300     0.13800
C1081       C  0.99136924  0.36472510  0.34152049     0.19900
C1082       C  0.99877328  0.36649300  0.35450157    -0.18200
C1083       C  0.99955507  0.35525552  0.36435995    -0.10500
C1084       C  0.99270581  0.34209693  0.36145028     0.22100
C1085       C  0.98477350  0.34061871  0.34873686    -0.19800
C1086       C  0.98399913  0.35182176  0.33892633    -0.10700
C1087       C  0.99404071  0.32940246  0.37090132    -0.14800
C1088       C  0.99853673  0.32987558  0.38457833    -0.28700
C1089       C  0.99209444  0.37615105  0.33056308    -0.03000
C1090       C  0.99208312  0.37299704  0.31657143    -0.39500
H1091       H  0.00446581  0.37637359  0.35675140     0.13300
H1092       H  0.00594313  0.35681922  0.37392049     0.12900
H1093       H  0.97927740  0.33067223  0.34629091     0.12300
H1094       H  0.97773934  0.35027577  0.32925427     0.12600
H1095       H  0.99090833  0.31911736  0.36638759     0.15300
H1096       H  0.00114239  0.33995918  0.38972259     0.14100
H1097       H  0.99387971  0.38712981  0.33401750     0.11800
H1098       H  0.99129791  0.36193694  0.31307328     0.13800
C1099       C  0.40213909  0.09524172  0.28553538     0.19900
C1100       C  0.40724416  0.08552530  0.27533107    -0.18200
C1101       C  0.40667091  0.07069739  0.27786171    -0.10500
C1102       C  0.40073606  0.06537578  0.29059656     0.22100
C1103       C  0.39490810  0.07514894  0.30032715    -0.19800
C1104       C  0.39555585  0.08984853  0.29784245    -0.10700
C1105       C  0.40100227  0.05000680  0.29488394    -0.14800
C1106       C  0.40655470  0.03906525  0.28734731    -0.28700
C1107       C  0.40394902  0.11094500  0.28345045    -0.03000
C1108       C  0.40652288  0.11971009  0.29461693    -0.39500
H1109       H  0.41215703  0.08942915  0.26564882     0.13300
H1110       H  0.41117676  0.06358457  0.27000138     0.12900
H1111       H  0.39009238  0.07141903  0.31013128     0.12300
H1112       H  0.39098642  0.09699387  0.30567018     0.12600
H1113       H  0.39688106  0.04765708  0.30545062     0.15300
H1114       H  0.41063417  0.04063294  0.27666753     0.14100
H1115       H  0.40373139  0.11524296  0.27266714     0.11800
H1116       H  0.40770167  0.11521126  0.30525941     0.13800
C1117       C  0.27248983  0.09814928  0.41504575     0.19900
C1118       C  0.26394913  0.09013257  0.40551363    -0.18200
C1119       C  0.26312765  0.07515153  0.40669952    -0.10500
C1120       C  0.27072235  0.06797245  0.41761588     0.22100
C1121       C  0.27872196  0.07611970  0.42746542    -0.19800
C1122       C  0.27955153  0.09096984  0.42626715    -0.10700
C1123       C  0.27161587  0.05210349  0.41883926    -0.14800
C1124       C  0.26443708  0.04240775  0.41079632    -0.28700
C1125       C  0.27384738  0.11395491  0.41328552    -0.03000
C1126       C  0.28570345  0.12106355  0.41754059    -0.39500
H1127       H  0.25822646  0.09543068  0.39690651     0.13300
H1128       H  0.25684594  0.06931351  0.39887315     0.12900
H1129       H  0.28457456  0.07094753  0.43607231     0.12300
H1130       H  0.28572372  0.09677567  0.43422463     0.12600
H1131       H  0.27925911  0.04811529  0.42671162     0.15300
H1132       H  0.25632754  0.04564123  0.40310438     0.14100
H1133       H  0.26508986  0.11977705  0.40826920     0.11800
H1134       H  0.29476832  0.11517976  0.42184819     0.13800
C1135       C  0.35846048  0.99997017  0.35398394     0.19900
C1136       C  0.34531675  0.00674736  0.35137998    -0.18200
C1137       C  0.33474834  0.00697938  0.36181040    -0.10500
C1138       C  0.33699534  0.00016446  0.37505584     0.22100
C1139       C  0.35023900  0.99358877  0.37776590    -0.19800
C1140       C  0.36085407  0.99339943  0.36732716    -0.10700
C1141       C  0.32579372  0.99971887  0.38622725    -0.14800
C1142       C  0.31174642  0.00077979  0.38314963    -0.28700
C1143       C  0.36909685  0.99960555  0.34231485    -0.03000
C1144       C  0.38321826  0.99765865  0.34441948    -0.39500
H1145       H  0.34323200  0.01195643  0.34123245     0.13300
H1146       H  0.32491450  0.01262513  0.35944806     0.12900
H1147       H  0.35226292  0.98830603  0.38788512     0.12300
H1148       H  0.37071862  0.98779209  0.36965385     0.12600
H1149       H  0.32915159  0.99777881  0.39720514     0.15300
H1150       H  0.30811606  0.00189614  0.37216877     0.14100
H1151       H  0.36514508  0.00149667  0.33151901     0.11800
H1152       H  0.38762261  0.99646951  0.35511204     0.13800
C1153       C  0.40314843  0.27290828  0.09762581     0.19900
C1154       C  0.39238901  0.27704570  0.08790594    -0.18200
C1155       C  0.39444789  0.27581808  0.07315648    -0.10500
C1156       C  0.40747521  0.27063673  0.06781528     0.22100
C1157       C  0.41804509  0.26606414  0.07755459    -0.19800
C1158       C  0.41589312  0.26707569  0.09230057    -0.10700
C1159       C  0.41125256  0.27209120  0.05247503    -0.14800
C1160       C  0.40160818  0.27262655  0.04168598    -0.28700
C1161       C  0.40152567  0.27645326  0.11301466    -0.03000
C1162       C  0.40794369  0.26912785  0.12366569    -0.39500
H1163       H  0.38254401  0.28172453  0.09173661     0.13300
H1164       H  0.38619939  0.27980556  0.06601748     0.12900
H1165       H  0.42825745  0.26224934  0.07373181     0.12300
H1166       H  0.42456093  0.26410607  0.09945085     0.12600
H1167       H  0.42248862  0.27384522  0.05010380     0.15300
H1168       H  0.39043157  0.27015608  0.04359594     0.14100
H1169       H  0.39496535  0.28566893  0.11564563     0.11800
H1170       H  0.41373952  0.25933772  0.12138770     0.13800
C1171       C  0.27424138  0.40634784  0.09837741     0.19900
C1172       C  0.26721558  0.41560882  0.08880159    -0.18200
C1173       C  0.26677647  0.41259276  0.07413834    -0.10500
C1174       C  0.27356772  0.40031111  0.06876503     0.22100
C1175       C  0.28025103  0.39088695  0.07838212    -0.19800
C1176       C  0.28055134  0.39380796  0.09301559    -0.10700
C1177       C  0.27602351  0.39825354  0.05326783    -0.14800
C1178       C  0.26782867  0.40392540  0.04281267    -0.28700
C1179       C  0.27617062  0.41072255  0.11356380    -0.03000
C1180       C  0.27838541  0.40129433  0.12423096    -0.39500
H1181       H  0.26243893  0.42542965  0.09262881     0.13300
H1182       H  0.26188904  0.42032137  0.06700575     0.12900
H1183       H  0.28579524  0.38150842  0.07448580     0.12300
H1184       H  0.28644527  0.38661818  0.09994877     0.12600
H1185       H  0.28575560  0.39263371  0.05037244     0.15300
H1186       H  0.25765473  0.40890873  0.04523540     0.14100
H1187       H  0.27609104  0.42211127  0.11597797     0.11800
H1188       H  0.27761529  0.38987564  0.12218679     0.13800
C1189       C  0.36030360  0.34302701  0.00039410     0.19900
C1190       C  0.35256458  0.34788369  0.98843542    -0.18200
C1191       C  0.34202825  0.35836350  0.98990039    -0.10500
C1192       C  0.33881874  0.36390481  0.00345008     0.22100
C1193       C  0.34640658  0.35889736  0.01544327    -0.19800
C1194       C  0.35718728  0.34866341  0.01393064    -0.10700
C1195       C  0.32689799  0.37407849  0.00545373    -0.14800
C1196       C  0.32367847  0.38438193  0.99594732    -0.28700
C1197       C  0.37084813  0.33138413  0.99858600    -0.03000
C1198       C  0.38304636  0.33053914  0.00628067    -0.39500
H1199       H  0.35465351  0.34351038  0.97794200     0.13300
H1200       H  0.33606985  0.36174836  0.98051928     0.12900
H1201       H  0.34393243  0.36287412  0.02600518     0.12300
H1202       H  0.36272952  0.34482355  0.02338743     0.12600
H1203       H  0.32077134  0.37324858  0.01523354     0.15300
H1204       H  0.33039728  0.38608780  0.98669636     0.14100
H1205       H  0.36868521  0.32347857  0.99030739     0.11800
H1206       H  0.38586889  0.33892015  0.01385459     0.13800
C1207       C  0.27588261  0.89775776  0.40825482     0.19900
C1208       C  0.26302083  0.90542567  0.40967412    -0.18200
C1209       C  0.26293498  0.92047335  0.40903448    -0.10500
C1210       C  0.27575740  0.92805561  0.40683167     0.22100
C1211       C  0.28841544  0.92031791  0.40473820    -0.19800
C1212       C  0.28848640  0.90540801  0.40530062    -0.10700
C1213       C  0.27699751  0.94389054  0.40785024    -0.14800
C1214       C  0.26624514  0.95346995  0.40676408    -0.28700
C1215       C  0.27598814  0.88186904  0.40999151    -0.03000
C1216       C  0.28777161  0.87467595  0.41429340    -0.39500
H1217       H  0.25311573  0.89978981  0.41175722     0.13300
H1218       H  0.25299500  0.92608166  0.41080017     0.12900
H1219       H  0.29842131  0.92586333  0.40286747     0.12300
H1220       H  0.29849908  0.89996317  0.40345697     0.12600
H1221       H  0.28779001  0.94794565  0.40963932     0.15300
H1222       H  0.25537823  0.95010216  0.40429148     0.14100
H1223       H  0.26604212  0.87603784  0.40825291     0.11800
H1224       H  0.29753417  0.88046033  0.41690389     0.13800
C1225       C  0.21764077  0.75714372  0.41184993     0.19900
C1226       C  0.21568220  0.77205244  0.41193702    -0.18200
C1227       C  0.22741585  0.78140249  0.41249207    -0.10500
C1228       C  0.24149996  0.77605105  0.41280053     0.22100
C1229       C  0.24346909  0.76114815  0.41242990    -0.19800
C1230       C  0.23172999  0.75179229  0.41186145    -0.10700
C1231       C  0.25433571  0.78552837  0.41427571    -0.14800
C1232       C  0.25430169  0.79966886  0.41139029    -0.28700
C1233       C  0.20471236  0.74768658  0.41184625    -0.03000
C1234       C  0.20490618  0.73373334  0.41553834    -0.39500
H1235       H  0.20498957  0.77650775  0.41190672     0.13300
H1236       H  0.22530530  0.79275970  0.41309850     0.12900
H1237       H  0.25416754  0.75670220  0.41262076     0.12300
H1238       H  0.23382960  0.74043031  0.41138176     0.12600
H1239       H  0.26425462  0.78062319  0.41793286     0.15300
H1240       H  0.24474572  0.80478850  0.40719937     0.14100
H1241       H  0.19446246  0.75261555  0.40935565     0.11800
H1242       H  0.21484216  0.72858997  0.41863369     0.13800
C1243       C  0.33914659  0.81874914  0.36849687     0.19900
C1244       C  0.33698630  0.81727647  0.35370312    -0.18200
C1245       C  0.34859963  0.81645880  0.34438748    -0.10500
C1246       C  0.36277539  0.81734792  0.34961358     0.22100
C1247       C  0.36494486  0.81860560  0.36444447    -0.19800
C1248       C  0.35331535  0.81938043  0.37377823    -0.10700
C1249       C  0.37550763  0.81711741  0.34000756    -0.14800
C1250       C  0.37485249  0.82045512  0.32598975    -0.28700
C1251       C  0.32637719  0.82033419  0.37786647    -0.03000
C1252       C  0.32656499  0.81802227  0.39208307    -0.39500
H1253       H  0.32623144  0.81674092  0.34931064     0.13300
H1254       H  0.34633967  0.81504119  0.33312793     0.12900
H1255       H  0.37570004  0.81931081  0.36881718     0.12300
H1256       H  0.35553266  0.82086831  0.38503955     0.12600
H1257       H  0.38590979  0.81494117  0.34481785     0.15300
H1258       H  0.36472549  0.82345414  0.32112156     0.14100
H1259       H  0.31638081  0.82356148  0.37280488     0.11800
H1260       H  0.33624153  0.81430529  0.39735568     0.13800
C1261       C  0.41312206  0.92780379  0.29654761     0.19900
C1262       C  0.42298415  0.91853655  0.30313757    -0.18200
C1263       C  0.42238258  0.90378079  0.30080791    -0.10500
C1264       C  0.41168821  0.89777288  0.29195778     0.22100
C1265       C  0.40209198  0.90704692  0.28492851    -0.19800
C1266       C  0.40272456  0.92191632  0.28723722    -0.10700
C1267       C  0.41031731  0.88193865  0.28999220    -0.14800
C1268       C  0.41487149  0.87254041  0.29997380    -0.28700
C1269       C  0.41395555  0.94331438  0.30031614    -0.03000
C1270       C  0.40714469  0.95410121  0.29349289    -0.39500
H1271       H  0.43121957  0.92273198  0.31022592     0.13300
H1272       H  0.43039347  0.89716199  0.30595674     0.12900
H1273       H  0.39384694  0.90274223  0.27792692     0.12300
H1274       H  0.39486017  0.92863010  0.28199568     0.12600
H1275       H  0.40491814  0.87795870  0.28044930     0.15300
H1276       H  0.41952864  0.87642744  0.30990275     0.14100
H1277       H  0.42088755  0.94603247  0.30932174     0.11800
H1278       H  0.40045259  0.95206152  0.28418003     0.13800
C1279       C  0.40653391  0.77549656  0.24663372     0.19900
C1280       C  0.40853377  0.76071341  0.24864968    -0.18200
C1281       C  0.40932802  0.75131822  0.23700204    -0.10500
C1282       C  0.40816348  0.75646165  0.22287731     0.22100
C1283       C  0.40591762  0.77121537  0.22086711    -0.19800
C1284       C  0.40510071  0.78061786  0.23252814    -0.10700
C1285       C  0.40894130  0.74694745  0.20997438    -0.14800
C1286       C  0.41288726  0.73304879  0.21027611    -0.28700
C1287       C  0.40621448  0.78498240  0.25956028    -0.03000
C1288       C  0.40609095  0.79944775  0.25929419    -0.39500
H1289       H  0.40956549  0.75637293  0.25933855     0.13300
H1290       H  0.41073130  0.74006943  0.23926704     0.12900
H1291       H  0.40482621  0.77553358  0.21017539     0.12300
H1292       H  0.40331693  0.79182191  0.23031083     0.12600
H1293       H  0.40632236  0.75169362  0.19968063     0.15300
H1294       H  0.41594812  0.72800214  0.22025243     0.14100
H1295       H  0.40669278  0.77973239  0.26991390     0.11800
H1296       H  0.40587959  0.80518916  0.24925273     0.13800
C1297       C  0.17643175  0.48069707  0.29443989     0.19900
C1298       C  0.18162254  0.48906879  0.30584083    -0.18200
C1299       C  0.18183566  0.50406921  0.30491303    -0.10500
C1300       C  0.17701934  0.51104418  0.29240666     0.22100
C1301       C  0.17214155  0.50260820  0.28091400    -0.19800
C1302       C  0.17189277  0.48766280  0.28186193    -0.10700
C1303       C  0.17611046  0.52696541  0.29100530    -0.14800
C1304       C  0.18195757  0.53651050  0.30019824    -0.28700
C1305       C  0.17630220  0.46476739  0.29576359    -0.03000
C1306       C  0.16719544  0.45636675  0.28827715    -0.39500
H1307       H  0.18529860  0.48398799  0.31560826     0.13300
H1308       H  0.18550643  0.51005128  0.31412914     0.12900
H1309       H  0.16843730  0.50761578  0.27111712     0.12300
H1310       H  0.16830895  0.48163541  0.27262303     0.12600
H1311       H  0.17001284  0.53105924  0.28193987     0.15300
H1312       H  0.18844665  0.53297854  0.30917933     0.14100
H1313       H  0.18378975  0.45984370  0.30323060     0.11800
H1314       H  0.15917845  0.46117446  0.28133175     0.13800
C1315       C  0.17471442  0.63522455  0.34626551     0.19900
C1316       C  0.16876448  0.64898808  0.34502871    -0.18200
C1317       C  0.16836767  0.65831722  0.35674657    -0.10500
C1318       C  0.17399667  0.65417854  0.37013914     0.22100
C1319       C  0.17992056  0.64040883  0.37142625    -0.19800
C1320       C  0.18032924  0.63105575  0.35967954    -0.10700
C1321       C  0.17323549  0.66361479  0.38307560    -0.14800
C1322       C  0.17154130  0.67794805  0.38239734    -0.28700
C1323       C  0.17412948  0.62552704  0.33347427    -0.03000
C1324       C  0.18029582  0.61248207  0.33268074    -0.39500
H1325       H  0.16418607  0.65250461  0.33495308     0.13300
H1326       H  0.16325835  0.66859412  0.35527573     0.12900
H1327       H  0.18419424  0.63682621  0.38160773     0.12300
H1328       H  0.18481862  0.62053458  0.36134966     0.12600
H1329       H  0.17424853  0.65859456  0.39350768     0.15300
H1330       H  0.17122568  0.68325824  0.37210460     0.14100
H1331       H  0.16802614  0.62926065  0.32426287     0.11800
H1332       H  0.18661489  0.60837134  0.34151961     0.13800
C1333       C  0.29128021  0.48565947  0.16579817     0.19900
C1334       C  0.27984975  0.49407764  0.16073278    -0.18200
C1335       C  0.28077951  0.50905590  0.16053774    -0.10500
C1336       C  0.29319063  0.51610556  0.16558364     0.22100
C1337       C  0.30470287  0.50769803  0.17045264    -0.19800
C1338       C  0.30377770  0.49269857  0.17064284    -0.10700
C1339       C  0.29462500  0.53209035  0.16593167    -0.14800
C1340       C  0.28342611  0.54115655  0.16520612    -0.28700
C1341       C  0.28950565  0.46970553  0.16584390    -0.03000
C1342       C  0.29990617  0.46015435  0.16902625    -0.39500
H1343       H  0.27011721  0.48903368  0.15682853     0.13300
H1344       H  0.27177403  0.51495831  0.15626359     0.12900
H1345       H  0.31442777  0.51277230  0.17432972     0.12300
H1346       H  0.31285837  0.48680281  0.17473845     0.12600
H1347       H  0.30528472  0.53655471  0.16743811     0.15300
H1348       H  0.27261851  0.53702301  0.16422947     0.14100
H1349       H  0.27900345  0.46557890  0.16287614     0.11800
H1350       H  0.31060502  0.46368575  0.17185639     0.13800
C1351       C  0.21916124  0.59596670  0.24418213     0.19900
C1352       C  0.23415001  0.59611849  0.24545095    -0.18200
C1353       C  0.24281239  0.59721132  0.23339693    -0.10500
C1354       C  0.23672498  0.59796002  0.21958886     0.22100
C1355       C  0.22172088  0.59836815  0.21831390    -0.19800
C1356       C  0.21301447  0.59731721  0.23042289    -0.10700
C1357       C  0.24565020  0.59806444  0.20637243    -0.14800
C1358       C  0.25921449  0.59313339  0.20609878    -0.28700
C1359       C  0.21062452  0.59367928  0.25744442    -0.03000
C1360       C  0.19626905  0.59482949  0.25834253    -0.39500
H1361       H  0.23923770  0.59525581  0.25586319     0.13300
H1362       H  0.25427324  0.59746563  0.23505081     0.12900
H1363       H  0.21669436  0.59909494  0.20786234     0.12300
H1364       H  0.20155207  0.59718556  0.22881950     0.12600
H1365       H  0.24065808  0.60153240  0.19642884     0.15300
H1366       H  0.26414979  0.58895376  0.21574853     0.14100
H1367       H  0.21655002  0.59064448  0.26702176     0.11800
H1368       H  0.18991694  0.59808865  0.24917064     0.13800
C1369       C  0.36500004  0.65311937  0.17603658     0.19900
C1370       C  0.36635385  0.63851367  0.17263309    -0.18200
C1371       C  0.35440689  0.62934852  0.17249863    -0.10500
C1372       C  0.34071606  0.63455380  0.17592155     0.22100
C1373       C  0.33942752  0.64911081  0.17955569    -0.19800
C1374       C  0.35135313  0.65825730  0.17967885    -0.10700
C1375       C  0.32740590  0.62553043  0.17543412    -0.14800
C1376       C  0.32694408  0.61119131  0.17339644    -0.28700
C1377       C  0.37806443  0.66249236  0.17583308    -0.03000
C1378       C  0.37771103  0.67694097  0.17516486    -0.39500
H1379       H  0.37670678  0.63418808  0.16985834     0.13300
H1380       H  0.35601763  0.61830462  0.16950264     0.12900
H1381       H  0.32908872  0.65347789  0.18231686     0.12300
H1382       H  0.34976748  0.66928108  0.18279192     0.12600
H1383       H  0.31731248  0.63112294  0.17670649     0.15300
H1384       H  0.33670167  0.60507570  0.17230641     0.14100
H1385       H  0.38842314  0.65722962  0.17572084     0.11800
H1386       H  0.36754518  0.68248657  0.17465976     0.13800
C1387       C  0.09671341  0.71897863  0.40599417     0.19900
C1388       C  0.08763951  0.71303922  0.39548146    -0.18200
C1389       C  0.07278715  0.71502293  0.39601840    -0.10500
C1390       C  0.06668587  0.72284348  0.40725829     0.22100
C1391       C  0.07580155  0.72921861  0.41745625    -0.19800
C1392       C  0.09064289  0.72739374  0.41681742    -0.10700
C1393       C  0.05105189  0.72251215  0.41008563    -0.14800
C1394       C  0.04081122  0.72010654  0.40011899    -0.28700
C1395       C  0.11211528  0.71486484  0.40631284    -0.03000
C1396       C  0.12248615  0.72276417  0.41261262    -0.39500
H1397       H  0.09201827  0.70640503  0.38710676     0.13300
H1398       H  0.06610320  0.70965173  0.38816669     0.12900
H1399       H  0.07136932  0.73511182  0.42633743     0.12300
H1400       H  0.09719972  0.73186941  0.42530631     0.12600
H1401       H  0.04791532  0.72333002  0.42120592     0.15300
H1402       H  0.04340853  0.72004532  0.38884779     0.14100
H1403       H  0.11498675  0.70477816  0.40131273     0.11800
H1404       H  0.12007359  0.73329508  0.41684949     0.13800
C1405       C  0.00493187  0.47212718  0.29827039     0.19900
C1406       C  0.99887988  0.47932921  0.30985647    -0.18200
C1407       C  0.99872815  0.49427646  0.31028175    -0.10500
C1408       C  0.00489256  0.50229682  0.29917725     0.22100
C1409       C  0.01137709  0.49504562  0.28784423    -0.19800
C1410       C  0.01149668  0.48012331  0.28741416    -0.10700
C1411       C  0.00433289  0.51814611  0.29861279    -0.14800
C1412       C  0.00138039  0.52651083  0.30987155    -0.28700
C1413       C  0.00394056  0.45632002  0.29767017    -0.03000
C1414       C  0.00345670  0.44913421  0.28525491    -0.39500
H1415       H  0.99383045  0.47337491  0.31837098     0.13300
H1416       H  0.99338789  0.49937925  0.31910160     0.12900
H1417       H  0.01630523  0.50095526  0.27922691     0.12300
H1418       H  0.01674001  0.47492501  0.27856996     0.12600
H1419       H  0.00675029  0.52319105  0.28844760     0.15300
H1420       H  0.99959373  0.52199182  0.32036391     0.14100
H1421       H  0.00267354  0.45052232  0.30764800     0.11800
H1422       H  0.00396003  0.45480139  0.27515455     0.13800
C1423       C  0.10089072  0.58129016  0.29167900     0.19900
C1424       C  0.09114791  0.59071981  0.28509543    -0.18200
C1425       C  0.07632854  0.58886332  0.28671739    -0.10500
C1426       C  0.07098024  0.57738576  0.29486883     0.22100
C1427       C  0.08076386  0.56778729  0.30108336    -0.19800
C1428       C  0.09547355  0.56963028  0.29946450    -0.10700
C1429       C  0.05547955  0.57491079  0.29760893    -0.14800
C1430       C  0.04447339  0.58256256  0.29216778    -0.28700
C1431       C  0.11659503  0.58364228  0.29010078    -0.03000
C1432       C  0.12619588  0.57887276  0.29981411    -0.39500
H1433       H  0.09502032  0.59968219  0.27888706     0.13300
H1434       H  0.06922817  0.59652146  0.28170345     0.12900
H1435       H  0.07701417  0.55875638  0.30728278     0.12300
H1436       H  0.10252035  0.56174669  0.30421408     0.12600
H1437       H  0.05298538  0.56615001  0.30482163     0.15300
H1438       H  0.04624825  0.59134554  0.28483314     0.14100
H1439       H  0.12030356  0.58970886  0.28095167     0.11800
H1440       H  0.12257218  0.57350883  0.30939522     0.13800
C1441       C  0.99997057  0.64314051  0.37619720     0.19900
C1442       C  0.98874872  0.63648380  0.36868045    -0.18200
C1443       C  0.99139808  0.62463969  0.36003621    -0.10500
C1444       C  0.00540422  0.61944482  0.35853005     0.22100
C1445       C  0.01664062  0.62604241  0.36607801    -0.19800
C1446       C  0.01393825  0.63770980  0.37499809    -0.10700
C1447       C  0.00857916  0.60836028  0.34780268    -0.14800
C1448       C  0.99963318  0.59739092  0.34523405    -0.28700
C1449       C  0.99707061  0.65660381  0.38391368    -0.03000
C1450       C  0.00449839  0.66076599  0.39554439    -0.39500
H1451       H  0.97796110  0.64065478  0.36926664     0.13300
H1452       H  0.98260027  0.62001280  0.35397356     0.12900
H1453       H  0.02753660  0.62234927  0.36482704     0.12300
H1454       H  0.02287264  0.64289382  0.38035216     0.12600
H1455       H  0.01809810  0.60970864  0.34135622     0.15300
H1456       H  0.99066103  0.59540370  0.35225863     0.14100
H1457       H  0.98855016  0.66339607  0.37977048     0.11800
H1458       H  0.01232913  0.65369315  0.40046336     0.13800
C1459       C  0.41222533  0.71208621  0.10172866     0.19900
C1460       C  0.40161795  0.70780143  0.09186789    -0.18200
C1461       C  0.40417183  0.70829263  0.07715349    -0.10500
C1462       C  0.41756133  0.71271035  0.07204673     0.22100
C1463       C  0.42810760  0.71717093  0.08187125    -0.19800
C1464       C  0.42541665  0.71707198  0.09656679    -0.10700
C1465       C  0.42143781  0.71062979  0.05687027    -0.14800
C1466       C  0.41250907  0.71333809  0.04582515    -0.28700
C1467       C  0.40992408  0.70957611  0.11723024    -0.03000
C1468       C  0.41559062  0.71786706  0.12763099    -0.39500
H1469       H  0.39146183  0.70370896  0.09558651     0.13300
H1470       H  0.39598764  0.70441624  0.06983165     0.12900
H1471       H  0.43859457  0.72034906  0.07817569     0.12300
H1472       H  0.43394396  0.72009876  0.10388653     0.12600
H1473       H  0.43196360  0.70621213  0.05476919     0.15300
H1474       H  0.40236234  0.71866704  0.04760270     0.14100
H1475       H  0.40342785  0.70038766  0.12017453     0.11800
H1476       H  0.42130638  0.72761306  0.12489654     0.13800
C1477       C  0.29013450  0.48180516  0.01227196     0.19900
C1478       C  0.27933998  0.49089474  0.01728181    -0.18200
C1479       C  0.28112630  0.50575932  0.01704854    -0.10500
C1480       C  0.29375229  0.51184859  0.01164431     0.22100
C1481       C  0.30471655  0.50277731  0.00707670    -0.19800
C1482       C  0.30292023  0.48793262  0.00725394    -0.10700
C1483       C  0.29584251  0.52754708  0.01036575    -0.14800
C1484       C  0.28493772  0.53679575  0.00887727    -0.28700
C1485       C  0.28721482  0.46616485  0.01153734    -0.03000
C1486       C  0.29732201  0.45618968  0.00931162    -0.39500
H1487       H  0.26941035  0.48648290  0.02124314     0.13300
H1488       H  0.27260393  0.51239201  0.02110378     0.12900
H1489       H  0.31455055  0.50720913  0.00291024     0.12300
H1490       H  0.31142451  0.48144816  0.00298218     0.12600
H1491       H  0.30675403  0.53152698  0.00967693     0.15300
H1492       H  0.27394930  0.53302973  0.00884878     0.14100
H1493       H  0.27613854  0.46274362  0.01252921     0.11800
H1494       H  0.30854427  0.45906170  0.00881855     0.13800
C1495       C  0.27450423  0.59583052  0.09838089     0.19900
C1496       C  0.26761236  0.58668401  0.08858265    -0.18200
C1497       C  0.26927985  0.58860525  0.07387412    -0.10500
C1498       C  0.27813606  0.59957752  0.06867808     0.22100
C1499       C  0.28482227  0.60889819  0.07844893    -0.19800
C1500       C  0.28290951  0.60716698  0.09316338    -0.10700
C1501       C  0.28229909  0.60004238  0.05344292    -0.14800
C1502       C  0.27351486  0.59617885  0.04261009    -0.28700
C1503       C  0.27428361  0.59211879  0.11380332    -0.03000
C1504       C  0.27605511  0.60171925  0.12440521    -0.39500
H1505       H  0.26128793  0.57773138  0.09233961     0.13300
H1506       H  0.26434345  0.58096770  0.06663655     0.12900
H1507       H  0.29192581  0.61724365  0.07469426     0.12300
H1508       H  0.28870501  0.61416910  0.10040608     0.12600
H1509       H  0.29335129  0.60282965  0.05117671     0.15300
H1510       H  0.26223975  0.59420001  0.04453057     0.14100
H1511       H  0.27304191  0.58086302  0.11650985     0.11800
H1512       H  0.27642551  0.61310026  0.12206176     0.13800
C1513       C  0.37233924  0.64267498  0.00302276     0.19900
C1514       C  0.37177393  0.62944857  0.01007803    -0.18200
C1515       C  0.35937257  0.62102587  0.00937321    -0.10500
C1516       C  0.34740089  0.62562915  0.00134822     0.22100
C1517       C  0.34815309  0.63870592  0.99404104    -0.19800
C1518       C  0.36049293  0.64709682  0.99476852    -0.10700
C1519       C  0.33372981  0.61753399  0.00069131    -0.14800
C1520       C  0.33242352  0.60354524  0.00380882    -0.28700
C1521       C  0.38534324  0.65171697  0.00433830    -0.03000
C1522       C  0.38453903  0.66606616  0.00416897    -0.39500
H1523       H  0.38080398  0.62581211  0.01644217     0.13300
H1524       H  0.35914001  0.61115827  0.01540431     0.12900
H1525       H  0.33913502  0.64246110  0.98772181     0.12300
H1526       H  0.36074479  0.65700519  0.98877613     0.12600
H1527       H  0.32428693  0.62336707  0.99712959     0.15300
H1528       H  0.34167679  0.59719588  0.00681018     0.14100
H1529       H  0.39564632  0.64652703  0.00583471     0.11800
H1530       H  0.37417716  0.67127762  0.00351870     0.13800
C1531       C  0.48621924  0.69418762  0.16871152     0.19900
C1532       C  0.49488715  0.69781096  0.15710851    -0.18200
C1533       C  0.50975409  0.69648780  0.15803080    -0.10500
C1534       C  0.51638258  0.69177207  0.17074399     0.22100
C1535       C  0.50770441  0.68759096  0.18219120    -0.19800
C1536       C  0.49275040  0.68884103  0.18123401    -0.10700
C1537       C  0.53227511  0.69146309  0.17233845    -0.14800
C1538       C  0.54068347  0.70098839  0.16560131    -0.28700
C1539       C  0.47063990  0.69732650  0.16767611    -0.03000
C1540       C  0.46042787  0.69045412  0.17509659    -0.39500
H1541       H  0.49013164  0.70185892  0.14731207     0.13300
H1542       H  0.51602610  0.69928485  0.14878359     0.12900
H1543       H  0.51252996  0.68383934  0.19206773     0.12300
H1544       H  0.48641652  0.68616781  0.19047295     0.12600
H1545       H  0.53705749  0.68386686  0.17975687     0.15300
H1546       H  0.53583802  0.70924654  0.15899592     0.14100
H1547       H  0.46741888  0.70568190  0.16022742     0.11800
H1548       H  0.46318361  0.68149826  0.18197383     0.13800
C1549       C  0.63122511  0.64822747  0.17690869     0.19900
C1550       C  0.62820056  0.63354909  0.17827494    -0.18200
C1551       C  0.63918247  0.62333002  0.17806285    -0.10500
C1552       C  0.65355808  0.62756031  0.17634542     0.22100
C1553       C  0.65655467  0.64226578  0.17502918    -0.19800
C1554       C  0.64558921  0.65246235  0.17527204    -0.10700
C1555       C  0.66575094  0.61721733  0.17534531    -0.14800
C1556       C  0.66470097  0.60283036  0.17654341    -0.28700
C1557       C  0.61909038  0.65862883  0.17625270    -0.03000
C1558       C  0.62054839  0.67280478  0.17860035    -0.39500
H1559       H  0.61724140  0.62994278  0.17940481     0.13300
H1560       H  0.63621785  0.61219518  0.17903741     0.12900
H1561       H  0.66745691  0.64590610  0.17356554     0.12300
H1562       H  0.64844501  0.66357701  0.17372457     0.12600
H1563       H  0.67623813  0.62175627  0.17323725     0.15300
H1564       H  0.65453582  0.59774483  0.17871880     0.14100
H1565       H  0.60855547  0.65444391  0.17348919     0.11800
H1566       H  0.63083633  0.67721053  0.18181217     0.13800
C1567       C  0.75757559  0.58496258  0.21369047     0.19900
C1568       C  0.77221616  0.58461909  0.21038921    -0.18200
C1569       C  0.78273937  0.58478563  0.22120443    -0.10500
C1570       C  0.77886908  0.58537625  0.23570712     0.22100
C1571       C  0.76422795  0.58607614  0.23897029    -0.19800
C1572       C  0.75372925  0.58591221  0.22817178    -0.10700
C1573       C  0.78949165  0.58518505  0.24782486    -0.14800
C1574       C  0.80382642  0.58383347  0.24653543    -0.28700
C1575       C  0.74674988  0.58443952  0.20176204    -0.03000
C1576       C  0.73289030  0.58082390  0.20354221    -0.39500
H1577       H  0.77555095  0.58404759  0.19935365     0.13300
H1578       H  0.79380877  0.58440054  0.21803991     0.12900
H1579       H  0.76084906  0.58671078  0.24998912     0.12300
H1580       H  0.74265967  0.58669113  0.23130230     0.12600
H1581       H  0.78516569  0.58594125  0.25853443     0.15300
H1582       H  0.80870648  0.58298627  0.23613253     0.14100
H1583       H  0.75049108  0.58646801  0.19099331     0.11800
H1584       H  0.72902749  0.57800647  0.21405254     0.13800
C1585       C  0.93361915  0.58640731  0.28783210     0.19900
C1586       C  0.92354330  0.59254604  0.29699386    -0.18200
C1587       C  0.90898417  0.59241476  0.29352706    -0.10500
C1588       C  0.90403854  0.58595606  0.28082726     0.22100
C1589       C  0.91411823  0.58034179  0.27131520    -0.19800
C1590       C  0.92878297  0.58045557  0.27480650    -0.10700
C1591       C  0.88842184  0.58482928  0.27755355    -0.14800
C1592       C  0.87882270  0.58302482  0.28802946    -0.28700
C1593       C  0.94872813  0.58551402  0.29300000    -0.03000
C1594       C  0.96015260  0.58222222  0.28495177    -0.39500
H1595       H  0.92692694  0.59728937  0.30703885     0.13300
H1596       H  0.90160333  0.59733123  0.30088386     0.12900
H1597       H  0.91059545  0.57541114  0.26141301     0.12300
H1598       H  0.93614979  0.57545031  0.26751743     0.12600
H1599       H  0.88485627  0.58487606  0.26647304     0.15300
H1600       H  0.88256784  0.58195087  0.29899491     0.14100
H1601       H  0.95047229  0.58740950  0.30434423     0.11800
H1602       H  0.95906636  0.58069962  0.27351339     0.13800
C1603       C  0.48246297  0.81577588  0.29632322     0.19900
C1604       C  0.49049986  0.81536588  0.28374750    -0.18200
C1605       C  0.50544286  0.81530968  0.28426380    -0.10500
C1606       C  0.51283121  0.81592335  0.29743391     0.22100
C1607       C  0.50482789  0.81567139  0.31006824    -0.19800
C1608       C  0.48978865  0.81566657  0.30955293    -0.10700
C1609       C  0.52878368  0.81711371  0.29819728    -0.14800
C1610       C  0.53636042  0.82331506  0.28769913    -0.28700
C1611       C  0.46664537  0.81747146  0.29492313    -0.03000
C1612       C  0.45707571  0.81524168  0.30539076    -0.39500
H1613       H  0.48518165  0.81529978  0.27340935     0.13300
H1614       H  0.51113602  0.81484983  0.27427183     0.12900
H1615       H  0.51022029  0.81598530  0.32036017     0.12300
H1616       H  0.48402319  0.81612482  0.31949837     0.12600
H1617       H  0.53429074  0.81357295  0.30784446     0.15300
H1618       H  0.53079815  0.82774236  0.27848146     0.14100
H1619       H  0.46264799  0.82090408  0.28452893     0.11800
H1620       H  0.46045040  0.81114995  0.31572469     0.13800
C1621       C  0.59107967  0.77939380  0.23723641     0.19900
C1622       C  0.59089042  0.76464974  0.24013972    -0.18200
C1623       C  0.59199729  0.75460816  0.22915461    -0.10500
C1624       C  0.59312611  0.75905800  0.21484121     0.22100
C1625       C  0.59372724  0.77380476  0.21193528    -0.19800
C1626       C  0.59265419  0.78389187  0.22296640    -0.10700
C1627       C  0.59365913  0.74868212  0.20273271    -0.14800
C1628       C  0.58886920  0.73510845  0.20370527    -0.28700
C1629       C  0.58920352  0.78943631  0.24945757    -0.03000
C1630       C  0.59051722  0.80379013  0.24879222    -0.39500
H1631       H  0.58984356  0.76083684  0.25100917     0.13300
H1632       H  0.59206193  0.74340318  0.23203625     0.12900
H1633       H  0.59473284  0.77754949  0.20103922     0.12300
H1634       H  0.59280409  0.79510263  0.22013780     0.12600
H1635       H  0.59752492  0.75251956  0.19251062     0.15300
H1636       H  0.58433325  0.73120370  0.21357832     0.14100
H1637       H  0.58657030  0.78465569  0.25968993     0.11800
H1638       H  0.59338335  0.80910428  0.23894354     0.13800
C1639       C  0.82232439  0.63157674  0.33345339     0.19900
C1640       C  0.81537125  0.63064841  0.34663766    -0.18200
C1641       C  0.81517070  0.64232433  0.35601477    -0.10500
C1642       C  0.82217976  0.65522759  0.35251972     0.22100
C1643       C  0.82891877  0.65622300  0.33921442    -0.19800
C1644       C  0.82907900  0.64455959  0.32982275    -0.10700
C1645       C  0.82311425  0.66774029  0.36244918    -0.14800
C1646       C  0.81991277  0.66713552  0.37643561    -0.28700
C1647       C  0.82286441  0.61859804  0.32417736    -0.03000
C1648       C  0.82585624  0.61896054  0.31014256    -0.39500
H1649       H  0.81007166  0.62080868  0.34972374     0.13300
H1650       H  0.80949883  0.64105989  0.36592943     0.12900
H1651       H  0.83440819  0.66597759  0.33619676     0.12300
H1652       H  0.83488964  0.64570706  0.31996267     0.12600
H1653       H  0.82738375  0.67769983  0.35822816     0.15300
H1654       H  0.81601451  0.65731488  0.38116826     0.14100
H1655       H  0.82069161  0.60830301  0.32913521     0.11800
H1656       H  0.82758958  0.62909203  0.30477427     0.13800
C1657       C  0.92946521  0.70767285  0.40103261     0.19900
C1658       C  0.92065099  0.69567982  0.40309124    -0.18200
C1659       C  0.90582039  0.69679566  0.40214715    -0.10500
C1660       C  0.89929123  0.71004964  0.39930330     0.22100
C1661       C  0.90805254  0.72198732  0.39658969    -0.19800
C1662       C  0.92303581  0.72086413  0.39752473    -0.10700
C1663       C  0.88341074  0.71148099  0.39911442    -0.14800
C1664       C  0.87505879  0.70298967  0.40716057    -0.28700
C1665       C  0.94511345  0.70566128  0.40332883    -0.03000
C1666       C  0.95551240  0.71542729  0.40107484    -0.39500
H1667       H  0.92525824  0.68533122  0.40559969     0.13300
H1668       H  0.89952249  0.68718160  0.40362734     0.12900
H1669       H  0.90328860  0.73226960  0.39413700     0.12300
H1670       H  0.92941965  0.73036536  0.39580514     0.12600
H1671       H  0.87855920  0.71975504  0.39251341     0.15300
H1672       H  0.87992070  0.69528257  0.41438778     0.14100
H1673       H  0.94827039  0.69523168  0.40743520     0.11800
H1674       H  0.95310556  0.72594449  0.39679729     0.13800
C1675       C  0.65445578  0.82097663  0.35769618     0.19900
C1676       C  0.65432583  0.81334572  0.34477866    -0.18200
C1677       C  0.64228314  0.81354448  0.33575794    -0.10500
C1678       C  0.63013245  0.82161396  0.33936302     0.22100
C1679       C  0.63018908  0.82909771  0.35237832    -0.19800
C1680       C  0.64222813  0.82886801  0.36142394    -0.10700
C1681       C  0.61732057  0.82256888  0.32978033    -0.14800
C1682       C  0.61810638  0.82141533  0.31547409    -0.28700
C1683       C  0.66770697  0.82095428  0.36667757    -0.03000
C1684       C  0.66767743  0.82270987  0.38094666    -0.39500
H1685       H  0.66357687  0.80714969  0.34167642     0.13300
H1686       H  0.64251893  0.80730368  0.32602714     0.12900
H1687       H  0.62099730  0.83541889  0.35540758     0.12300
H1688       H  0.64204441  0.83516976  0.37112003     0.12600
H1689       H  0.60715023  0.82542677  0.33452591     0.15300
H1690       H  0.62838483  0.81966912  0.31047727     0.14100
H1691       H  0.67780978  0.81895094  0.36138970     0.11800
H1692       H  0.65761947  0.82383342  0.38653246     0.13800
C1693       C  0.77653364  0.75077681  0.39943096     0.19900
C1694       C  0.76171003  0.74825247  0.39881943    -0.18200
C1695       C  0.75199315  0.75962366  0.39804207    -0.10500
C1696       C  0.75688434  0.77390321  0.39801859     0.22100
C1697       C  0.77170724  0.77642706  0.39842743    -0.19800
C1698       C  0.78142610  0.76505764  0.39920675    -0.10700
C1699       C  0.74702494  0.78646757  0.39775928    -0.14800
C1700       C  0.73308719  0.78581084  0.40127752    -0.28700
C1701       C  0.78633854  0.73823190  0.40081155    -0.03000
C1702       C  0.80065772  0.73882218  0.39923870    -0.39500
H1703       H  0.75759899  0.73739577  0.39894715     0.13300
H1704       H  0.74071772  0.75708751  0.39737036     0.12900
H1705       H  0.77580649  0.78728818  0.39842786     0.12300
H1706       H  0.79268414  0.76763387  0.39993410     0.12600
H1707       H  0.75167267  0.79688508  0.39546398     0.15300
H1708       H  0.72823739  0.77572616  0.40430152     0.14100
H1709       H  0.78147769  0.72794835  0.40327598     0.11800
H1710       H  0.80593468  0.74875385  0.39643532     0.13800
C1711       C  0.73128528  0.89040541  0.39917556     0.19900
C1712       C  0.73136293  0.89982390  0.38746109    -0.18200
C1713       C  0.73276071  0.91465071  0.38950072    -0.10500
C1714       C  0.73392689  0.92036380  0.40336771     0.22100
C1715       C  0.73447323  0.91092073  0.41501560    -0.19800
C1716       C  0.73325397  0.89612939  0.41298255    -0.10700
C1717       C  0.73234518  0.93594012  0.40625531    -0.14800
C1718       C  0.73606195  0.94648283  0.39717085    -0.28700
C1719       C  0.72717361  0.87511619  0.39685648    -0.03000
C1720       C  0.72979814  0.86466570  0.40643390    -0.39500
H1721       H  0.72972411  0.89574777  0.37673408     0.13300
H1722       H  0.73198921  0.92163237  0.38029976     0.12900
H1723       H  0.73520289  0.91505663  0.42581438     0.12300
H1724       H  0.73291006  0.88938756  0.42236016     0.12600
H1725       H  0.72739184  0.93883694  0.41631043     0.15300
H1726       H  0.74184370  0.94405380  0.38747112     0.14100
H1727       H  0.72095786  0.87257549  0.38730771     0.11800
H1728       H  0.73652616  0.86678228  0.41571085     0.13800
C1729       C  0.48367165  0.99756466  0.31338032     0.19900
C1730       C  0.49261672  0.98570441  0.31157203    -0.18200
C1731       C  0.50744996  0.98729775  0.31218807    -0.10500
C1732       C  0.51360638  0.00088869  0.31439203     0.22100
C1733       C  0.50465774  0.01274816  0.31634643    -0.19800
C1734       C  0.48978627  0.01110162  0.31597618    -0.10700
C1735       C  0.52919145  0.00316180  0.31301683    -0.14800
C1736       C  0.53880861  0.99301731  0.31633677    -0.28700
C1737       C  0.46810565  0.99567693  0.31124951    -0.03000
C1738       C  0.45831990  0.00338273  0.31825152    -0.39500
H1739       H  0.48810344  0.97521931  0.30938908     0.13300
H1740       H  0.51403540  0.97800417  0.31020346     0.12900
H1741       H  0.50918810  0.02333704  0.31783146     0.12300
H1742       H  0.48312916  0.02050339  0.31705952     0.12600
H1743       H  0.53280848  0.01332209  0.30867250     0.15300
H1744       H  0.53548316  0.98320523  0.32157514     0.14100
H1745       H  0.46457612  0.98734491  0.30388117     0.11800
H1746       H  0.46159277  0.01101533  0.32642334     0.13800
C1747       C  0.58381103  0.90127955  0.27521097     0.19900
C1748       C  0.59343497  0.91056672  0.26842973    -0.18200
C1749       C  0.59144120  0.92544447  0.26899011    -0.10500
C1750       C  0.57962532  0.93122522  0.27620152     0.22100
C1751       C  0.56959926  0.92184580  0.28220280    -0.19800
C1752       C  0.57165905  0.90707597  0.28176287    -0.10700
C1753       C  0.57755315  0.94681981  0.27853262    -0.14800
C1754       C  0.58820423  0.95656272  0.27855049    -0.28700
C1755       C  0.58637187  0.88557915  0.27516853    -0.03000
C1756       C  0.58226169  0.87721331  0.28609190    -0.39500
H1757       H  0.60269624  0.90631924  0.26301647     0.13300
H1758       H  0.59918330  0.93231254  0.26387129     0.12900
H1759       H  0.56029686  0.92597574  0.28764825     0.12300
H1760       H  0.56368595  0.90021929  0.28655879     0.12600
H1761       H  0.56710673  0.95009480  0.28235665     0.15300
H1762       H  0.59892068  0.95364138  0.27532118     0.14100
H1763       H  0.59181992  0.88086896  0.26611504     0.11800
H1764       H  0.57757891  0.88202312  0.29551034     0.13800
C1765       C  0.65787144  0.98511858  0.37064392     0.19900
C1766       C  0.64461185  0.99112452  0.37410229    -0.18200
C1767       C  0.63333002  0.99105939  0.36414491    -0.10500
C1768       C  0.63513366  0.98478988  0.35057476     0.22100
C1769       C  0.64820932  0.97822031  0.34746095    -0.19800
C1770       C  0.65941867  0.97830309  0.35736651    -0.10700
C1771       C  0.62418895  0.98538498  0.33898163    -0.14800
C1772       C  0.61097461  0.99082557  0.34029232    -0.28700
C1773       C  0.66999293  0.98615965  0.38092393    -0.03000
C1774       C  0.68360990  0.98680367  0.37650708    -0.39500
H1775       H  0.64312563  0.99626544  0.38435663     0.13300
H1776       H  0.62346923  0.99623435  0.36708508     0.12900
H1777       H  0.64986324  0.97315762  0.33719443     0.12300
H1778       H  0.66928766  0.97301573  0.35455334     0.12600
H1779       H  0.62739194  0.98144417  0.32856161     0.15300
H1780       H  0.60707124  0.99462621  0.35045969     0.14100
H1781       H  0.66766809  0.98702611  0.39224489     0.11800
H1782       H  0.68597585  0.98691161  0.36517727     0.13800
C1783       C  0.71367388  0.58365296  0.09875576     0.19900
C1784       C  0.71968208  0.59466800  0.09048866    -0.18200
C1785       C  0.71936337  0.59394527  0.07547895    -0.10500
C1786       C  0.71314945  0.58206410  0.06849140     0.22100
C1787       C  0.70754206  0.57092702  0.07680812    -0.19800
C1788       C  0.70790588  0.57162022  0.09168926    -0.10700
C1789       C  0.71146715  0.58092650  0.05269113    -0.14800
C1790       C  0.71869285  0.58860223  0.04288776    -0.28700
C1791       C  0.71362864  0.58471232  0.11468370    -0.03000
C1792       C  0.70341131  0.57833114  0.12251308    -0.39500
H1793       H  0.72432225  0.60398693  0.09564485     0.13300
H1794       H  0.72364716  0.60283371  0.06945356     0.12900
H1795       H  0.70279998  0.56159137  0.07175546     0.12300
H1796       H  0.70372294  0.56260683  0.09760576     0.12600
H1797       H  0.70377408  0.57300809  0.04889766     0.15300
H1798       H  0.72678424  0.59632877  0.04609893     0.14100
H1799       H  0.72195777  0.59092813  0.11999744     0.11800
H1800       H  0.69464447  0.57282548  0.11714196     0.13800
C1801       C  0.49105193  0.69096093  0.01276243     0.19900
C1802       C  0.49939393  0.69896951  0.02241127    -0.18200
C1803       C  0.51426788  0.69761501  0.02266871    -0.10500
C1804       C  0.52114449  0.68843536  0.01300605     0.22100
C1805       C  0.51277353  0.67987340  0.00385320    -0.19800
C1806       C  0.49785032  0.68116006  0.00365838    -0.10700
C1807       C  0.53695345  0.68837855  0.01154088    -0.14800
C1808       C  0.54471780  0.70035114  0.01356699    -0.28700
C1809       C  0.47549078  0.69392483  0.01175266    -0.03000
C1810       C  0.46574269  0.68424039  0.00733874    -0.39500
H1811       H  0.49439270  0.70648477  0.02961711     0.13300
H1812       H  0.52036256  0.70399616  0.03023956     0.12900
H1813       H  0.51782367  0.67269356  0.99635045     0.12300
H1814       H  0.49176434  0.67497966  0.99592212     0.12600
H1815       H  0.54205462  0.67888818  0.00722533     0.15300
H1816       H  0.53949514  0.71018566  0.01680630     0.14100
H1817       H  0.47188850  0.70446606  0.01507509     0.11800
H1818       H  0.46892037  0.67333722  0.00494200     0.13800
C1819       C  0.60284455  0.71895007  0.10037012     0.19900
C1820       C  0.59758588  0.72978013  0.09133673    -0.18200
C1821       C  0.59853351  0.72844219  0.07643330    -0.10500
C1822       C  0.60496263  0.71628746  0.07033697     0.22100
C1823       C  0.61091382  0.70590305  0.07944621    -0.19800
C1824       C  0.60995502  0.70723264  0.09425243    -0.10700
C1825       C  0.60428739  0.71303066  0.05478413    -0.14800
C1826       C  0.60100057  0.72243053  0.04432225    -0.28700
C1827       C  0.60029303  0.71965519  0.11604566    -0.03000
C1828       C  0.59772769  0.70769707  0.12363099    -0.39500
H1829       H  0.59214907  0.73895878  0.09579238     0.13300
H1830       H  0.59364395  0.73659295  0.06980415     0.12900
H1831       H  0.61599074  0.69646840  0.07507654     0.12300
H1832       H  0.61458695  0.69892224  0.10088982     0.12600
H1833       H  0.60599390  0.70189866  0.05184904     0.15300
H1834       H  0.59988129  0.73376415  0.04656409     0.14100
H1835       H  0.59946171  0.73006125  0.12116037     0.11800
H1836       H  0.59739907  0.69742311  0.11819731     0.13800
C1837       C  0.65579144  0.63052002  0.99494727     0.19900
C1838       C  0.65779771  0.64451900  0.98995632    -0.18200
C1839       C  0.64646610  0.65418498  0.98954027    -0.10500
C1840       C  0.63284615  0.65013981  0.99443944     0.22100
C1841       C  0.63070939  0.63597833  0.99900040    -0.19800
C1842       C  0.64206782  0.62624086  0.99931675    -0.10700
C1843       C  0.62077106  0.66043352  0.99528646    -0.14800
C1844       C  0.62269856  0.67470055  0.99555657    -0.28700
C1845       C  0.66849259  0.62110423  0.99597303    -0.03000
C1846       C  0.66797818  0.60674795  0.99685174    -0.39500
H1847       H  0.66823159  0.64803373  0.98639330     0.13300
H1848       H  0.64853096  0.66476145  0.98535775     0.12900
H1849       H  0.62031062  0.63255136  0.00272828     0.12300
H1850       H  0.64012028  0.61559980  0.00341744     0.12600
H1851       H  0.61003966  0.65613804  0.99658333     0.15300
H1852       H  0.63332264  0.67931081  0.99491543     0.14100
H1853       H  0.67889768  0.62632201  0.99554605     0.11800
H1854       H  0.65785877  0.60104144  0.99655895     0.13800
C1855       C  0.93179078  0.27879881  0.41096573     0.19900
C1856       C  0.92289928  0.28429419  0.42163256    -0.18200
C1857       C  0.90805743  0.28297900  0.42058343    -0.10500
C1858       C  0.90164162  0.27625866  0.40869254     0.22100
C1859       C  0.91050514  0.27030277  0.39821318    -0.19800
C1860       C  0.92545536  0.27162267  0.39926441    -0.10700
C1861       C  0.88577878  0.27536779  0.40707837    -0.14800
C1862       C  0.87705906  0.28539866  0.41254299    -0.28700
C1863       C  0.94740950  0.28171000  0.41228110    -0.03000
C1864       C  0.95779438  0.27556401  0.40449463    -0.39500
H1865       H  0.92745505  0.28977203  0.43081642     0.13300
H1866       H  0.90166029  0.28721671  0.42917046     0.12900
H1867       H  0.90583640  0.26496215  0.38900971     0.12300
H1868       H  0.93189544  0.26736429  0.39073297     0.12600
H1869       H  0.88123444  0.26666629  0.40078877     0.15300
H1870       H  0.88158155  0.29465839  0.41796175     0.14100
H1871       H  0.95053671  0.28961791  0.42025591     0.11800
H1872       H  0.95535382  0.26725409  0.39675218     0.13800
C1873       C  0.76490027  0.20757978  0.40078921     0.19900
C1874       C  0.77837406  0.20726699  0.40755281    -0.18200
C1875       C  0.78723981  0.21939139  0.40767550    -0.10500
C1876       C  0.78290517  0.23211218  0.40081302     0.22100
C1877       C  0.76952468  0.23234532  0.39384463    -0.19800
C1878       C  0.76066507  0.22022123  0.39372084    -0.10700
C1879       C  0.79164787  0.24550921  0.40131796    -0.14800
C1880       C  0.80587499  0.24577066  0.40386651    -0.28700
C1881       C  0.75548485  0.19466062  0.40153593    -0.03000
C1882       C  0.74110687  0.19547089  0.40099229    -0.39500
H1883       H  0.78190473  0.19770687  0.41310158     0.13300
H1884       H  0.79726658  0.21882200  0.41350961     0.12900
H1885       H  0.76589964  0.24196639  0.38846381     0.12300
H1886       H  0.75055507  0.22080551  0.38802259     0.12600
H1887       H  0.78611879  0.25557776  0.39945874     0.15300
H1888       H  0.81177510  0.23586013  0.40512979     0.14100
H1889       H  0.76045724  0.18436562  0.40370705     0.11800
H1890       H  0.73596586  0.20581845  0.39985025     0.13800
C1891       C  0.72314855  0.05999634  0.39488263     0.19900
C1892       C  0.71066044  0.06830523  0.39397207    -0.18200
C1893       C  0.71125763  0.08319881  0.39507796    -0.10500
C1894       C  0.72441279  0.09025817  0.39723048     0.22100
C1895       C  0.73701125  0.08206026  0.39750737    -0.19800
C1896       C  0.73641510  0.06705476  0.39645385    -0.10700
C1897       C  0.72515736  0.10611715  0.39908795    -0.14800
C1898       C  0.71444892  0.11355827  0.40509916    -0.28700
C1899       C  0.72141688  0.04412191  0.39515684    -0.03000
C1900       C  0.73203136  0.03432139  0.39525131    -0.39500
H1901       H  0.70029500  0.06322905  0.39262679     0.13300
H1902       H  0.70135690  0.08914226  0.39421185     0.12900
H1903       H  0.74730060  0.08724906  0.39895997     0.12300
H1904       H  0.74629928  0.06110784  0.39724764     0.12600
H1905       H  0.73479152  0.11169670  0.39580344     0.15300
H1906       H  0.70518051  0.10789947  0.40915522     0.14100
H1907       H  0.71046324  0.04024866  0.39585763     0.11800
H1908       H  0.74313443  0.03745866  0.39412546     0.13800
C1909       C  0.82687601  0.48054437  0.29741397     0.19900
C1910       C  0.81508850  0.48983751  0.29737280    -0.18200
C1911       C  0.81706426  0.50468576  0.29661542    -0.10500
C1912       C  0.83092435  0.51052005  0.29570135     0.22100
C1913       C  0.84270130  0.50122799  0.29586018    -0.19800
C1914       C  0.84073703  0.48641926  0.29675741    -0.10700
C1915       C  0.83348771  0.52600956  0.29315125    -0.14800
C1916       C  0.82431692  0.53646243  0.29677340    -0.28700
C1917       C  0.82436837  0.46483880  0.29661428    -0.03000
C1918       C  0.83409984  0.45510322  0.30089227    -0.39500
H1919       H  0.80430297  0.48557347  0.29761236     0.13300
H1920       H  0.80770402  0.51147115  0.29610568     0.12900
H1921       H  0.85346869  0.50543074  0.29494226     0.12300
H1922       H  0.85008198  0.47962555  0.29625935     0.12600
H1923       H  0.84345104  0.52893054  0.28799089     0.15300
H1924       H  0.81472978  0.53403022  0.30275876     0.14100
H1925       H  0.81435049  0.46118874  0.29184398     0.11800
H1926       H  0.84385580  0.45849100  0.30631252     0.13800
C1927       C  0.82369006  0.33752727  0.36007841     0.19900
C1928       C  0.82293055  0.35233775  0.36256545    -0.18200
C1929       C  0.82425526  0.36215754  0.35133228    -0.10500
C1930       C  0.82624412  0.35737830  0.33719744     0.22100
C1931       C  0.82670811  0.34255171  0.33469796    -0.19800
C1932       C  0.82536675  0.33274680  0.34591901    -0.10700
C1933       C  0.82802651  0.36727187  0.32475033    -0.14800
C1934       C  0.82644011  0.38161022  0.32529326    -0.28700
C1935       C  0.82287898  0.32754555  0.37253595    -0.03000
C1936       C  0.82718002  0.31378556  0.37212721    -0.39500
H1937       H  0.82156713  0.35636432  0.37331804     0.13300
H1938       H  0.82390088  0.37340938  0.35394762     0.12900
H1939       H  0.82810379  0.33849416  0.32396202     0.12300
H1940       H  0.82556305  0.32147642  0.34332518     0.12600
H1941       H  0.83065865  0.36245438  0.31454026     0.15300
H1942       H  0.82363543  0.38688849  0.33516548     0.14100
H1943       H  0.81934389  0.33191941  0.38266040     0.11800
H1944       H  0.83129962  0.30923134  0.36236295     0.13800
C1945       C  0.92971113  0.40478129  0.26645680     0.19900
C1946       C  0.92027787  0.41583091  0.26264784    -0.18200
C1947       C  0.90549526  0.41419027  0.26433509    -0.10500
C1948       C  0.89983438  0.40146225  0.27010970     0.22100
C1949       C  0.90929966  0.39029281  0.27358557    -0.19800
C1950       C  0.92406487  0.39187280  0.27170157    -0.10700
C1951       C  0.88447317  0.39995828  0.27405412    -0.14800
C1952       C  0.87393712  0.40847896  0.26908083    -0.28700
C1953       C  0.94531016  0.40776772  0.26708059    -0.03000
C1954       C  0.95542131  0.39775851  0.26497898    -0.39500
H1955       H  0.92441148  0.42596488  0.25882147     0.13300
H1956       H  0.89872471  0.42322858  0.26182158     0.12900
H1957       H  0.90529430  0.38045398  0.27822207     0.12300
H1958       H  0.93109031  0.38331265  0.27513866     0.12600
H1959       H  0.88182456  0.39177082  0.28185518     0.15300
H1960       H  0.87608914  0.41644657  0.26095622     0.14100
H1961       H  0.94856221  0.41851307  0.27022993     0.11800
H1962       H  0.95248204  0.38723851  0.26094277     0.13800
C1963       C  0.69707872  0.50276978  0.17459306     0.19900
C1964       C  0.68524604  0.49345443  0.17440210    -0.18200
C1965       C  0.68716042  0.47858598  0.17340155    -0.10500
C1966       C  0.70102416  0.47275409  0.17273049     0.22100
C1967       C  0.71281893  0.48206106  0.17334262    -0.19800
C1968       C  0.71091405  0.49684039  0.17440168    -0.10700
C1969       C  0.70383948  0.45720945  0.17075538    -0.14800
C1970       C  0.69447120  0.44661062  0.17355052    -0.28700
C1971       C  0.69475613  0.51857067  0.17492631    -0.03000
C1972       C  0.70433772  0.52785676  0.16955403    -0.39500
H1973       H  0.67447934  0.49771850  0.17465142     0.13300
H1974       H  0.67777937  0.47180841  0.17276023     0.12900
H1975       H  0.72361546  0.47787206  0.17298075     0.12300
H1976       H  0.72034957  0.50353965  0.17513212     0.12600
H1977       H  0.71445802  0.45433028  0.16709416     0.15300
H1978       H  0.68397766  0.44894573  0.17779398     0.14100
H1979       H  0.68474823  0.52260375  0.17913785     0.11800
H1980       H  0.71398324  0.52387885  0.16458482     0.13800
C1981       C  0.78325683  0.40119262  0.23526851     0.19900
C1982       C  0.78506051  0.40332692  0.22052471    -0.18200
C1983       C  0.77324598  0.40329931  0.21114275    -0.10500
C1984       C  0.75933176  0.40102000  0.21633623     0.22100
C1985       C  0.75757058  0.39873143  0.23101836    -0.19800
C1986       C  0.76934142  0.39864309  0.24034671    -0.10700
C1987       C  0.74629980  0.40141998  0.20703690    -0.14800
C1988       C  0.74625256  0.39900643  0.19284929    -0.28700
C1989       C  0.79604072  0.40172769  0.24499856    -0.03000
C1990       C  0.79513305  0.40409432  0.25917117    -0.39500
H1991       H  0.79562833  0.40527922  0.21627754     0.13300
H1992       H  0.77504540  0.40539720  0.19994264     0.12900
H1993       H  0.74699969  0.39688573  0.23530833     0.12300
H1994       H  0.76739457  0.39642853  0.25148602     0.12600
H1995       H  0.73614827  0.40337334  0.21225658     0.15300
H1996       H  0.75610411  0.39645052  0.18738779     0.14100
H1997       H  0.80656696  0.40081582  0.24025215     0.11800
H1998       H  0.78481639  0.40582066  0.26404990     0.13800
C1999       C  0.48110885  0.17336483  0.29441306     0.19900
C2000       C  0.48970291  0.16940823  0.28285878    -0.18200
C2001       C  0.50456233  0.17093300  0.28352260    -0.10500
C2002       C  0.51134351  0.17625432  0.29593112     0.22100
C2003       C  0.50274949  0.18079494  0.30730517    -0.19800
C2004       C  0.48778541  0.17931183  0.30662031    -0.10700
C2005       C  0.52728245  0.17689977  0.29736096    -0.14800
C2006       C  0.53593074  0.16806937  0.29004258    -0.28700
C2007       C  0.46540849  0.17057725  0.29316647    -0.03000
C2008       C  0.45529331  0.17557984  0.30203599    -0.39500
H2009       H  0.48489687  0.16500307  0.27323261     0.13300
H2010       H  0.51064899  0.16790675  0.27424036     0.12900
H2011       H  0.50765505  0.18510234  0.31692143     0.12300
H2012       H  0.48162383  0.18249134  0.31579484     0.12600
H2013       H  0.53195415  0.18420611  0.30516226     0.15300
H2014       H  0.53134657  0.16017809  0.28281623     0.14100
H2015       H  0.46193090  0.16414370  0.28408598     0.11800
H2016       H  0.45811128  0.18240057  0.31100819     0.13800
C2017       C  0.65596213  0.17139741  0.36369239     0.19900
C2018       C  0.64129531  0.17280710  0.36661520    -0.18200
C2019       C  0.63109833  0.17356667  0.35551993    -0.10500
C2020       C  0.63536748  0.17301208  0.34114068     0.22100
C2021       C  0.65004042  0.17197422  0.33823441    -0.19800
C2022       C  0.66020593  0.17127424  0.34928473    -0.10700
C2023       C  0.62507584  0.17260002  0.32881549    -0.14800
C2024       C  0.61089776  0.17520861  0.32952765    -0.28700
C2025       C  0.66637824  0.17006421  0.37591333    -0.03000
C2026       C  0.68011811  0.16596007  0.37444293    -0.39500
H2027       H  0.63766039  0.17304280  0.37756576     0.13300
H2028       H  0.61993623  0.17420370  0.35833806     0.12900
H2029       H  0.65369620  0.17159127  0.32729265     0.12300
H2030       H  0.67132387  0.17067725  0.34633120     0.12600
H2031       H  0.62945907  0.16961373  0.31852550     0.15300
H2032       H  0.60604238  0.17846248  0.33947051     0.14100
H2033       H  0.66246014  0.17214670  0.38660640     0.11800
H2034       H  0.68426971  0.16334575  0.36401073     0.13800
C2035       C  0.59426080  0.06467183  0.29137489     0.19900
C2036       C  0.59849443  0.07416889  0.30225955    -0.18200
C2037       C  0.59753303  0.08894930  0.30035363    -0.10500
C2038       C  0.59222240  0.09467380  0.28746839     0.22100
C2039       C  0.58857257  0.08525214  0.27630954    -0.19800
C2040       C  0.58949779  0.07038224  0.27822837    -0.10700
C2041       C  0.59051512  0.11039075  0.28543409    -0.14800
C2042       C  0.58790052  0.11929184  0.29640936    -0.28700
C2043       C  0.59437611  0.04908044  0.29473362    -0.03000
C2044       C  0.58973986  0.03852873  0.28600495    -0.39500
H2045       H  0.60236928  0.07013760  0.31243537     0.13300
H2046       H  0.60102362  0.09583952  0.30901119     0.12900
H2047       H  0.58466148  0.08940267  0.26619983     0.12300
H2048       H  0.58625492  0.06354014  0.26946703     0.12600
H2049       H  0.59082522  0.11464498  0.27463857     0.15300
H2050       H  0.58657855  0.11502234  0.30709612     0.14100
H2051       H  0.59778844  0.04618287  0.30548958     0.11800
H2052       H  0.58630653  0.04070576  0.27513764     0.13800
C2053       C  0.48106089  0.28811468  0.17017806     0.19900
C2054       C  0.48967407  0.27746303  0.17638442    -0.18200
C2055       C  0.50458455  0.27857351  0.17630709    -0.10500
C2056       C  0.51134930  0.29029821  0.16972958     0.22100
C2057       C  0.50273952  0.30111724  0.16372778    -0.19800
C2058       C  0.48774810  0.30004145  0.16388680    -0.10700
C2059       C  0.52727435  0.29158226  0.16908100    -0.14800
C2060       C  0.53607811  0.28019987  0.17004638    -0.28700
C2061       C  0.46527093  0.28586305  0.16998070    -0.03000
C2062       C  0.45539961  0.29625878  0.16828916    -0.39500
H2063       H  0.48482833  0.26820213  0.18137868     0.13300
H2064       H  0.51069804  0.27024752  0.18155193     0.12900
H2065       H  0.50763435  0.31030549  0.15865824     0.12300
H2066       H  0.48150303  0.30836166  0.15877395     0.12600
H2067       H  0.53185498  0.30211897  0.16720895     0.15300
H2068       H  0.53168311  0.26949519  0.17106344     0.14100
H2069       H  0.46156951  0.27495649  0.17171647     0.11800
H2070       H  0.45861129  0.30737259  0.16718054     0.13800
C2071       C  0.59447046  0.21474910  0.24279808     0.19900
C2072       C  0.59627158  0.22960206  0.24433961    -0.18200
C2073       C  0.59667140  0.23858268  0.23236957    -0.10500
C2074       C  0.59501591  0.23291076  0.21849944     0.22100
C2075       C  0.59357669  0.21800310  0.21695774    -0.19800
C2076       C  0.59324471  0.20901482  0.22893290    -0.10700
C2077       C  0.59444485  0.24207933  0.20541862    -0.14800
C2078       C  0.59131253  0.25616564  0.20557099    -0.28700
C2079       C  0.59275997  0.20581548  0.25586250    -0.03000
C2080       C  0.59506900  0.19158295  0.25635003    -0.39500
H2081       H  0.59726168  0.23430661  0.25488531     0.13300
H2082       H  0.59825217  0.24992021  0.23410824     0.12900
H2083       H  0.59229658  0.21330892  0.20643756     0.12300
H2084       H  0.59149928  0.19768087  0.22726394     0.12600
H2085       H  0.59569106  0.23680968  0.19515507     0.15300
H2086       H  0.58929197  0.26159568  0.21557853     0.14100
H2087       H  0.58924860  0.21122787  0.26548813     0.11800
H2088       H  0.59923237  0.18600098  0.24712252     0.13800
C2089       C  0.65200840  0.35650548  0.17310170     0.19900
C2090       C  0.63831803  0.35775970  0.16687156    -0.18200
C2091       C  0.62874435  0.34619487  0.16677998    -0.10500
C2092       C  0.63266230  0.33300779  0.17292969     0.22100
C2093       C  0.64629043  0.33177148  0.17927396    -0.19800
C2094       C  0.65584855  0.34335207  0.17942102    -0.10700
C2095       C  0.62327997  0.32007777  0.17215896    -0.14800
C2096       C  0.60895102  0.32051122  0.17037170    -0.28700
C2097       C  0.66221353  0.36874900  0.17167556    -0.03000
C2098       C  0.67482804  0.36989476  0.17871529    -0.39500
H2099       H  0.63510494  0.36766961  0.16176286     0.13300
H2100       H  0.61851602  0.34751968  0.16143945     0.12900
H2101       H  0.64965087  0.32170587  0.18396735     0.12300
H2102       H  0.66634717  0.34169636  0.18406282     0.12600
H2103       H  0.62841176  0.30971107  0.17341089     0.15300
H2104       H  0.60341386  0.33069822  0.16988319     0.14100
H2105       H  0.65935716  0.37705964  0.16403793     0.11800
H2106       H  0.67796309  0.36204504  0.18666883     0.13800
C2107       C  0.69839343  0.51214745  0.99280211     0.19900
C2108       C  0.68705593  0.50426363  0.99861911    -0.18200
C2109       C  0.68747266  0.48930067  0.99895535    -0.10500
C2110       C  0.69923106  0.48189801  0.99327974     0.22100
C2111       C  0.71044327  0.48979482  0.98725674    -0.19800
C2112       C  0.71001780  0.50472934  0.98691314    -0.10700
C2113       C  0.70055812  0.46605979  0.99377536    -0.14800
C2114       C  0.68963510  0.45702483  0.99627720    -0.28700
C2115       C  0.69770739  0.52803294  0.99310490    -0.03000
C2116       C  0.70935734  0.53648171  0.99239323    -0.39500
H2117       H  0.67796279  0.50971606  0.00319310     0.13300
H2118       H  0.67872145  0.48370588  0.00396019     0.12900
H2119       H  0.71958967  0.48437625  0.98274925     0.12300
H2120       H  0.71876326  0.51033661  0.98189701     0.12600
H2121       H  0.71106821  0.46159883  0.99168534     0.15300
H2122       H  0.67886551  0.46095225  0.99785143     0.14100
H2123       H  0.68731380  0.53292939  0.99477651     0.11800
H2124       H  0.71996060  0.53189664  0.99153793     0.13800
C2125       C  0.71339552  0.40075499  0.09570165     0.19900
C2126       C  0.72031523  0.41052573  0.08665462    -0.18200
C2127       C  0.71880921  0.40951569  0.07176207    -0.10500
C2128       C  0.71012899  0.39879708  0.06559368     0.22100
C2129       C  0.70351062  0.38881780  0.07462889    -0.19800
C2130       C  0.70516811  0.38970546  0.08949086    -0.10700
C2131       C  0.70619061  0.39880509  0.05011946    -0.14800
C2132       C  0.71421536  0.40451438  0.03964631    -0.28700
C2133       C  0.71379124  0.40325287  0.11144450    -0.03000
C2134       C  0.71168963  0.39290377  0.12124709    -0.39500
H2135       H  0.72659663  0.41922067  0.09114598     0.13300
H2136       H  0.72381175  0.41759676  0.06518802     0.12900
H2137       H  0.69662407  0.38056055  0.07018035     0.12300
H2138       H  0.69937792  0.38217441  0.09605561     0.12600
H2139       H  0.69589941  0.39409568  0.04725601     0.15300
H2140       H  0.72493290  0.40845767  0.04194131     0.14100
H2141       H  0.71579369  0.41413152  0.11509510     0.11800
H2142       H  0.71051719  0.38182639  0.11792553     0.13800
C2143       C  0.51294460  0.29305168  0.99496452     0.19900
C2144       C  0.50516815  0.30202391  0.00404792    -0.18200
C2145       C  0.49020956  0.30134899  0.00433340    -0.10500
C2146       C  0.48269636  0.29178932  0.99534127     0.22100
C2147       C  0.49047997  0.28299306  0.98609128    -0.19800
C2148       C  0.50541787  0.28367866  0.98579806    -0.10700
C2149       C  0.46686151  0.29021808  0.99569556    -0.14800
C2150       C  0.45796143  0.30045073  0.00043548    -0.28700
C2151       C  0.52884978  0.29357939  0.99545534    -0.03000
C2152       C  0.53697571  0.28214968  0.99236481    -0.39500
H2153       H  0.51070554  0.30932140  0.01121610     0.13300
H2154       H  0.48465606  0.30805588  0.01188056     0.12900
H2155       H  0.48497137  0.27556906  0.97902993     0.12300
H2156       H  0.51099530  0.27690282  0.97832305     0.12600
H2157       H  0.46232336  0.28030021  0.99156226     0.15300
H2158       H  0.46209704  0.31074985  0.00391360     0.14100
H2159       H  0.53396754  0.30327343  0.99944516     0.11800
H2160       H  0.53198477  0.27207984  0.98933379     0.13800
C2161       C  0.57800568  0.26926162  0.09708788     0.19900
C2162       C  0.56512468  0.27049196  0.08936403    -0.18200
C2163       C  0.56497469  0.27019021  0.07447882    -0.10500
C2164       C  0.57769080  0.26857048  0.06684619     0.22100
C2165       C  0.59061802  0.26670092  0.07448314    -0.19800
C2166       C  0.59078353  0.26706931  0.08951511    -0.10700
C2167       C  0.57705725  0.27084799  0.05114563    -0.14800
C2168       C  0.58640941  0.26564551  0.04160703    -0.28700
C2169       C  0.57752414  0.27182237  0.11278014    -0.03000
C2170       C  0.58782970  0.26837016  0.12234564    -0.39500
H2171       H  0.55512714  0.27220001  0.09487107     0.13300
H2172       H  0.55488853  0.27171953  0.06887463     0.12900
H2173       H  0.60065416  0.26575374  0.06889740     0.12300
H2174       H  0.60096175  0.26634691  0.09507454     0.12600
H2175       H  0.56820620  0.27733541  0.04720443     0.15300
H2176       H  0.59484671  0.25835999  0.04491808     0.14100
H2177       H  0.56792244  0.27700055  0.11670622     0.11800
H2178       H  0.59729087  0.26255690  0.11910013     0.13800
C2179       C  0.62513828  0.33842726  0.99899659     0.19900
C2180       C  0.62380124  0.35137376  0.99151725    -0.18200
C2181       C  0.63509995  0.36123675  0.99138430    -0.10500
C2182       C  0.64789459  0.35838147  0.99893743     0.22100
C2183       C  0.64909190  0.34556098  0.00662792    -0.19800
C2184       C  0.63781219  0.33574859  0.00679168    -0.10700
C2185       C  0.66038149  0.36822521  0.99871883    -0.14800
C2186       C  0.65926815  0.38236659  0.99635440    -0.28700
C2187       C  0.61325387  0.32785592  0.99843718    -0.03000
C2188       C  0.61563452  0.31372047  0.99955833    -0.39500
H2189       H  0.61413605  0.35369266  0.98547084     0.13300
H2190       H  0.63388545  0.37086086  0.98506429     0.12900
H2191       H  0.65878285  0.34315479  0.01260033     0.12300
H2192       H  0.63905172  0.32612657  0.01311692     0.12600
H2193       H  0.67084716  0.36372708  0.00115725     0.15300
H2194       H  0.64886487  0.38727134  0.99473102     0.14100
H2195       H  0.60245450  0.33170472  0.99641255     0.11800
H2196       H  0.62648344  0.30972009  0.00066824     0.13800
C2197       C  0.16201035  0.70396205  0.49017183     0.19900
C2198       C  0.15456973  0.71378619  0.49867587    -0.18200
C2199       C  0.15449744  0.71247265  0.51356476    -0.10500
C2200       C  0.16211401  0.70138353  0.52041157     0.22100
C2201       C  0.16935225  0.69139319  0.51190241    -0.19800
C2202       C  0.16938923  0.69268631  0.49696278    -0.10700
C2203       C  0.16266305  0.69989664  0.53631578    -0.14800
C2204       C  0.16072649  0.71101485  0.54527027    -0.28700
C2205       C  0.16224575  0.70634054  0.47440750    -0.03000
C2206       C  0.16546668  0.69627805  0.46459767    -0.39500
H2207       H  0.14873504  0.72253600  0.49376586     0.13300
H2208       H  0.14834284  0.72012403  0.51960791     0.12900
H2209       H  0.17525363  0.68271514  0.51685251     0.12300
H2210       H  0.17548680  0.68503880  0.49085863     0.12600
H2211       H  0.16530776  0.68947617  0.54076913     0.15300
H2212       H  0.15877982  0.72163586  0.54099956     0.14100
H2213       H  0.15929954  0.71696484  0.47067146     0.11800
H2214       H  0.16786503  0.68539058  0.46783756     0.13800
C2215       C  0.16977191  0.63314365  0.66013518     0.19900
C2216       C  0.16540068  0.63133812  0.64581257    -0.18200
C2217       C  0.16520571  0.64293361  0.63624100    -0.10500
C2218       C  0.16948184  0.65670191  0.64075589     0.22100
C2219       C  0.17404254  0.65845704  0.65499881    -0.19800
C2220       C  0.17430469  0.64688638  0.66452468    -0.10700
C2221       C  0.16875290  0.66967216  0.63136235    -0.14800
C2222       C  0.16743663  0.66949644  0.61697403    -0.28700
C2223       C  0.16930559  0.62051561  0.67007366    -0.03000
C2224       C  0.17010606  0.62156976  0.68444757    -0.39500
H2225       H  0.16186623  0.62092972  0.64205109     0.13300
H2226       H  0.16136980  0.64107532  0.62546567     0.12900
H2227       H  0.17743354  0.66889169  0.65881821     0.12300
H2228       H  0.17815499  0.64888220  0.67526068     0.12600
H2229       H  0.16941407  0.68001182  0.63666545     0.15300
H2230       H  0.16723559  0.65943372  0.61120260     0.14100
H2231       H  0.16751169  0.60999797  0.66539867     0.11800
H2232       H  0.17122744  0.63196623  0.68947364     0.13800
C2233       C  0.21517218  0.59244336  0.76588247     0.19900
C2234       C  0.21422620  0.59070050  0.78076712    -0.18200
C2235       C  0.22651272  0.59121012  0.78952606    -0.10500
C2236       C  0.24010518  0.59361484  0.78358278     0.22100
C2237       C  0.24100685  0.59550937  0.76873500    -0.19800
C2238       C  0.22875691  0.59503003  0.76000653    -0.10700
C2239       C  0.25369474  0.59340031  0.79216895    -0.14800
C2240       C  0.25454817  0.59423978  0.80654844    -0.28700
C2241       C  0.20179854  0.59182111  0.75691932    -0.03000
C2242       C  0.20173669  0.58941743  0.74269929    -0.39500
H2243       H  0.20393868  0.58873630  0.78563557     0.13300
H2244       H  0.22527822  0.58939447  0.80084705     0.12900
H2245       H  0.25129146  0.59738464  0.76381989     0.12300
H2246       H  0.23005423  0.59689116  0.74870299     0.12600
H2247       H  0.26358062  0.59224200  0.78625855     0.15300
H2248       H  0.24500773  0.59581018  0.81284362     0.14100
H2249       H  0.19161332  0.59300058  0.76229134     0.11800
H2250       H  0.21169342  0.58743011  0.73721442     0.13800
C2251       C  0.28813334  0.58559193  0.93125112     0.19900
C2252       C  0.30031588  0.58292932  0.92304544    -0.18200
C2253       C  0.29998531  0.58456540  0.90822978    -0.10500
C2254       C  0.28727891  0.58860023  0.90108986     0.22100
C2255       C  0.27508282  0.59142145  0.90932084    -0.19800
C2256       C  0.27546929  0.58992640  0.92425372    -0.10700
C2257       C  0.28641825  0.59005681  0.88518976    -0.14800
C2258       C  0.29604169  0.58418377  0.87631542    -0.28700
C2259       C  0.28924529  0.58324750  0.94694631    -0.03000
C2260       C  0.28075291  0.58925376  0.95684908    -0.39500
H2261       H  0.31024163  0.57967748  0.92815237     0.13300
H2262       H  0.30983239  0.58278955  0.90255436     0.12900
H2263       H  0.26516649  0.59461075  0.90416243     0.12300
H2264       H  0.26579769  0.59187424  0.93019974     0.12600
H2265       H  0.27733532  0.59575740  0.88062133     0.15300
H2266       H  0.30483230  0.57787461  0.88053355     0.14100
H2267       H  0.29816563  0.57670327  0.95059517     0.11800
H2268       H  0.27210326  0.59635666  0.95373173     0.13800
C2269       C  0.28861782  0.82927168  0.49181457     0.19900
C2270       C  0.28058396  0.83882290  0.50002624    -0.18200
C2271       C  0.28170053  0.83885635  0.51491726    -0.10500
C2272       C  0.29069585  0.82904457  0.52209263     0.22100
C2273       C  0.29880871  0.81951607  0.51385894    -0.19800
C2274       C  0.29777335  0.81956887  0.49889755    -0.10700
C2275       C  0.29197854  0.82853606  0.53803192    -0.14800
C2276       C  0.28236056  0.83459755  0.54675738    -0.28700
C2277       C  0.28681722  0.82968678  0.47598586    -0.03000
C2278       C  0.29645364  0.82457306  0.46670093    -0.39500
H2279       H  0.27350286  0.84645331  0.49487600     0.13300
H2280       H  0.27559549  0.84678577  0.52061362     0.12900
H2281       H  0.30585537  0.81186962  0.51903104     0.12300
H2282       H  0.30394181  0.81181752  0.49300461     0.12600
H2283       H  0.30092633  0.82272189  0.54272969     0.15300
H2284       H  0.27305453  0.83998538  0.54236832     0.14100
H2285       H  0.27732699  0.83499013  0.47177293     0.11800
H2286       H  0.30634006  0.81978480  0.47051152     0.13800
C2287       C  0.21016865  0.76267818  0.59979396     0.19900
C2288       C  0.20858521  0.77674071  0.60492480    -0.18200
C2289       C  0.21988482  0.78667353  0.60422594    -0.10500
C2290       C  0.23311153  0.78280291  0.59822897     0.22100
C2291       C  0.23465870  0.76872791  0.59313495    -0.19800
C2292       C  0.22339984  0.75882409  0.59385535    -0.10700
C2293       C  0.24553747  0.79290070  0.59675621    -0.14800
C2294       C  0.24576304  0.80677976  0.60087514    -0.28700
C2295       C  0.19758196  0.75268065  0.59996529    -0.03000
C2296       C  0.19861195  0.73831410  0.59862066    -0.39500
H2297       H  0.19850668  0.78009663  0.60944275     0.13300
H2298       H  0.21805976  0.79732602  0.60829842     0.12900
H2299       H  0.24462252  0.76538519  0.58836492     0.12300
H2300       H  0.22506479  0.74831021  0.58934870     0.12600
H2301       H  0.25509438  0.78862548  0.59180835     0.15300
H2302       H  0.23652336  0.81159798  0.60581784     0.14100
H2303       H  0.18702013  0.75738509  0.60103905     0.11800
H2304       H  0.20903685  0.73329222  0.59805808     0.13800
C2305       C  0.36170778  0.82012401  0.65645925     0.19900
C2306       C  0.34762242  0.81572223  0.65925931    -0.18200
C2307       C  0.33702036  0.81610477  0.64857252    -0.10500
C2308       C  0.34019877  0.82109570  0.63475661     0.22100
C2309       C  0.35435676  0.82518718  0.63186196    -0.19800
C2310       C  0.36497172  0.82479016  0.64255001    -0.10700
C2311       C  0.32912182  0.82239574  0.62316564    -0.14800
C2312       C  0.31494217  0.82305373  0.62561187    -0.28700
C2313       C  0.37232870  0.82042215  0.66852485    -0.03000
C2314       C  0.38660275  0.82180203  0.66694903    -0.39500
H2315       H  0.34476464  0.81202846  0.66982645     0.13300
H2316       H  0.32640776  0.81242243  0.65124589     0.12900
H2317       H  0.35716307  0.82905234  0.62134108     0.12300
H2318       H  0.37555559  0.82855236  0.63988827     0.12600
H2319       H  0.33283281  0.82386407  0.61229405     0.15300
H2320       H  0.31097597  0.82252122  0.63643827     0.14100
H2321       H  0.36813432  0.81957042  0.67928242     0.11800
H2322       H  0.39125639  0.82213760  0.65639867     0.13800
C2323       C  0.34355297  0.63771903  0.82144261     0.19900
C2324       C  0.34113720  0.65234783  0.81899440    -0.18200
C2325       C  0.35245670  0.66219358  0.81914833    -0.10500
C2326       C  0.36659727  0.65766642  0.82192854     0.22100
C2327       C  0.36904742  0.64296786  0.82408515    -0.19800
C2328       C  0.35771027  0.63310540  0.82388537    -0.10700
C2329       C  0.37902053  0.66777899  0.82309578    -0.14800
C2330       C  0.37791159  0.68218104  0.82302115    -0.28700
C2331       C  0.33091390  0.62793964  0.82228648    -0.03000
C2332       C  0.33160688  0.61354323  0.82163839    -0.39500
H2333       H  0.33037057  0.65623141  0.81708536     0.13300
H2334       H  0.34989670  0.67328588  0.81717531     0.12900
H2335       H  0.37977597  0.63910653  0.82625735     0.12300
H2336       H  0.36010510  0.62200610  0.82611404     0.12600
H2337       H  0.38955676  0.66312137  0.82476936     0.15300
H2338       H  0.36761356  0.68733179  0.82178112     0.14100
H2339       H  0.32049334  0.63288202  0.82360485     0.11800
H2340       H  0.34170709  0.60823360  0.81972330     0.13800
C2341       C  0.41000581  0.78075004  0.75782504     0.19900
C2342       C  0.40516194  0.78327232  0.77176555    -0.18200
C2343       C  0.40549637  0.77242006  0.78211707    -0.10500
C2344       C  0.41082599  0.75873350  0.77877785     0.22100
C2345       C  0.41566514  0.75623292  0.76484841    -0.19800
C2346       C  0.41535927  0.76706334  0.75453126    -0.10700
C2347       C  0.41142335  0.74665916  0.78923709    -0.14800
C2348       C  0.40971400  0.74797730  0.80346730    -0.28700
C2349       C  0.40982292  0.79279539  0.74730261    -0.03000
C2350       C  0.41167376  0.79113074  0.73313402    -0.39500
H2351       H  0.40104077  0.79369870  0.77466415     0.13300
H2352       H  0.40142165  0.77483835  0.79260077     0.12900
H2353       H  0.41987250  0.74584270  0.76194304     0.12300
H2354       H  0.41960514  0.76461774  0.74412792     0.12600
H2355       H  0.41377697  0.73610290  0.78497850     0.15300
H2356       H  0.40775883  0.75833851  0.80826219     0.14100
H2357       H  0.40820311  0.80354164  0.75144204     0.11800
H2358       H  0.41293548  0.78056583  0.72854649     0.13800
C2359       C  0.41796505  0.70081065  0.93337796     0.19900
C2360       C  0.41511193  0.71408122  0.92679674    -0.18200
C2361       C  0.41478630  0.71523750  0.91181802    -0.10500
C2362       C  0.41729925  0.70314204  0.90318201     0.22100
C2363       C  0.42028918  0.69002608  0.90984204    -0.19800
C2364       C  0.42052369  0.68885864  0.92468452    -0.10700
C2365       C  0.41730539  0.70351855  0.88726864    -0.14800
C2366       C  0.41152135  0.71393747  0.87910897    -0.28700
C2367       C  0.41813738  0.69853381  0.94912738    -0.03000
C2368       C  0.41848161  0.70882174  0.95926861    -0.39500
H2369       H  0.41298245  0.72352768  0.93309487     0.13300
H2370       H  0.41271554  0.72561073  0.90711632     0.12900
H2371       H  0.42235193  0.68054591  0.90351661     0.12300
H2372       H  0.42275929  0.67849625  0.92940144     0.12600
H2373       H  0.42204921  0.69436686  0.88193590     0.15300
H2374       H  0.40636850  0.72311130  0.88392177     0.14100
H2375       H  0.41837827  0.68742343  0.95259360     0.11800
H2376       H  0.41851454  0.72008042  0.95645450     0.13800
C2377       C  0.09349371  0.60140071  0.71582765     0.19900
C2378       C  0.08575210  0.60683896  0.70412294    -0.18200
C2379       C  0.07081579  0.60706675  0.70412921    -0.10500
C2380       C  0.06310731  0.60185026  0.71583047     0.22100
C2381       C  0.07080253  0.59701572  0.72792292    -0.19800
C2382       C  0.08587130  0.59680602  0.72792406    -0.10700
C2383       C  0.04728327  0.60024930  0.71406081    -0.14800
C2384       C  0.03780828  0.59748374  0.72451204    -0.28700
C2385       C  0.10921948  0.59930555  0.71413297    -0.03000
C2386       C  0.11870968  0.59700533  0.72483094    -0.39500
H2387       H  0.09128017  0.61046656  0.69466555     0.13300
H2388       H  0.06523532  0.61086548  0.69466037     0.12900
H2389       H  0.06528884  0.59272018  0.73707671     0.12300
H2390       H  0.09142303  0.59233869  0.73708098     0.12600
H2391       H  0.04320716  0.60102023  0.70316193     0.15300
H2392       H  0.04118802  0.59718135  0.73562883     0.14100
H2393       H  0.11320219  0.59950028  0.70325991     0.11800
H2394       H  0.11540695  0.59754297  0.73589067     0.13800
C2395       C  0.99475702  0.69933184  0.48407361     0.19900
C2396       C  0.99059893  0.68759079  0.49244733    -0.18200
C2397       C  0.99031363  0.68862106  0.50735719    -0.10500
C2398       C  0.99435825  0.70143481  0.51423789     0.22100
C2399       C  0.99840178  0.71319639  0.50586722    -0.19800
C2400       C  0.99872494  0.71215928  0.49098287    -0.10700
C2401       C  0.99420805  0.70313726  0.53002854    -0.14800
C2402       C  0.99494716  0.69213290  0.53928894    -0.28700
C2403       C  0.99532907  0.69760484  0.46827554    -0.03000
C2404       C  0.99539944  0.70867166  0.45905962    -0.39500
H2405       H  0.98748180  0.67759222  0.48742541     0.13300
H2406       H  0.98672993  0.67942604  0.51337400     0.12900
H2407       H  0.00155096  0.72318893  0.51088365     0.12300
H2408       H  0.00239789  0.72136151  0.48504217     0.12600
H2409       H  0.99391786  0.71399401  0.53420892     0.15300
H2410       H  0.99588604  0.68120921  0.53548964     0.14100
H2411       H  0.99551786  0.68675849  0.46405940     0.11800
H2412       H  0.99454635  0.71959411  0.46287109     0.13800
C2413       C  0.09120350  0.71832175  0.59648005     0.19900
C2414       C  0.08175885  0.72255438  0.58552150    -0.18200
C2415       C  0.06693458  0.72146273  0.58721605    -0.10500
C2416       C  0.06119025  0.71588791  0.59989269     0.22100
C2417       C  0.07062654  0.71204280  0.61103195    -0.19800
C2418       C  0.08548294  0.71336034  0.60941788    -0.10700
C2419       C  0.04572792  0.71211162  0.60095993    -0.14800
C2420       C  0.03526943  0.71873648  0.59346721    -0.28700
C2421       C  0.10676324  0.71750730  0.59334119    -0.03000
C2422       C  0.11726892  0.71833002  0.60327487    -0.39500
H2423       H  0.08588532  0.72625452  0.57539758     0.13300
H2424       H  0.06007344  0.72417283  0.57823933     0.12900
H2425       H  0.06650309  0.70753398  0.62082697     0.12300
H2426       H  0.09243853  0.70970189  0.61797790     0.12600
H2427       H  0.04297936  0.70296804  0.60758428     0.15300
H2428       H  0.03764601  0.72834937  0.58740777     0.14100
H2429       H  0.10968939  0.71602319  0.58222892     0.11800
H2430       H  0.11477746  0.72078853  0.61430441     0.13800
C2431       C  0.98682344  0.62294964  0.65209068     0.19900
C2432       C  0.99606979  0.62304200  0.64038463    -0.18200
C2433       C  0.99562493  0.63425984  0.63046842    -0.10500
C2434       C  0.98571779  0.64549703  0.63199544     0.22100
C2435       C  0.97604774  0.64500030  0.64334561    -0.19800
C2436       C  0.97650941  0.63382275  0.65323272    -0.10700
C2437       C  0.98573772  0.65840961  0.62272125    -0.14800
C2438       C  0.99172220  0.65898183  0.60973264    -0.28700
C2439       C  0.98852046  0.61179074  0.66327397    -0.03000
C2440       C  0.98607765  0.61465232  0.67710418    -0.39500
H2441       H  0.00405823  0.61474195  0.63924954     0.13300
H2442       H  0.00343296  0.63433233  0.62202660     0.12900
H2443       H  0.96824027  0.65343706  0.64471173     0.12300
H2444       H  0.96887825  0.63381766  0.66185455     0.12600
H2445       H  0.98053582  0.66794087  0.62683012     0.15300
H2446       H  0.99634438  0.64950684  0.60495150     0.14100
H2447       H  0.99293222  0.60147231  0.66028122     0.11800
H2448       H  0.98268696  0.62529016  0.68027746     0.13800
C2449       C  0.41112246  0.92490496  0.72385451     0.19900
C2450       C  0.42266293  0.91568679  0.72132926    -0.18200
C2451       C  0.42058662  0.90091257  0.72031755    -0.10500
C2452       C  0.40684429  0.89494698  0.72171985     0.22100
C2453       C  0.39529314  0.90408541  0.72452487    -0.19800
C2454       C  0.39740645  0.91893185  0.72572840    -0.10700
C2455       C  0.40432361  0.87947767  0.71880048    -0.14800
C2456       C  0.41411856  0.86947440  0.72220109    -0.28700
C2457       C  0.41365695  0.94058510  0.72251615    -0.03000
C2458       C  0.40473154  0.95091336  0.72704498    -0.39500
H2459       H  0.43329082  0.91998252  0.71962580     0.13300
H2460       H  0.42966529  0.89425401  0.71771512     0.12900
H2461       H  0.38458103  0.89975748  0.72546285     0.12300
H2462       H  0.38818021  0.92568368  0.72736942     0.12600
H2463       H  0.39458946  0.87639658  0.71312770     0.15300
H2464       H  0.42344718  0.87247744  0.72855253     0.14100
H2465       H  0.42325854  0.94378670  0.71686532     0.11800
H2466       H  0.39542540  0.94829907  0.73337447     0.13800
C2467       C  0.28798015  0.99663655  0.48432048     0.19900
C2468       C  0.29921025  0.00349145  0.49164237    -0.18200
C2469       C  0.29921267  0.00444155  0.50651330    -0.10500
C2470       C  0.28805339  0.99827192  0.51441645     0.22100
C2471       C  0.27686398  0.99128699  0.50709313    -0.19800
C2472       C  0.27683395  0.99039299  0.49218721    -0.10700
C2473       C  0.28743310  0.99939010  0.53020302    -0.14800
C2474       C  0.29896900  0.00188443  0.53855810    -0.28700
C2475       C  0.28833480  0.99626251  0.46851235    -0.03000
C2476       C  0.27649167  0.99560087  0.46030106    -0.39500
H2477       H  0.30787992  0.00842031  0.48580131     0.13300
H2478       H  0.30780666  0.01030804  0.51167196     0.12900
H2479       H  0.26814096  0.98645439  0.51293481     0.12300
H2480       H  0.26817735  0.98469942  0.48691596     0.12600
H2481       H  0.27707184  0.99784530  0.53516254     0.15300
H2482       H  0.30956981  0.00272535  0.53402534     0.14100
H2483       H  0.29868165  0.99751421  0.46344588     0.11800
H2484       H  0.26597741  0.99510131  0.46509809     0.13800
C2485       C  0.27983793  0.90657352  0.59853890     0.19900
C2486       C  0.26952546  0.91570208  0.59240779    -0.18200
C2487       C  0.27211331  0.93046279  0.59117806    -0.10500
C2488       C  0.28508066  0.93640485  0.59618080     0.22100
C2489       C  0.29520948  0.92732941  0.60262214    -0.19800
C2490       C  0.29259527  0.91265011  0.60393728    -0.10700
C2491       C  0.28896327  0.95173977  0.59418198    -0.14800
C2492       C  0.27955916  0.96252426  0.59222425    -0.28700
C2493       C  0.27712392  0.89080225  0.59884038    -0.03000
C2494       C  0.28778249  0.88111654  0.59912723    -0.39500
H2495       H  0.25959665  0.91134028  0.58819507     0.13300
H2496       H  0.26414905  0.93705992  0.58591729     0.12900
H2497       H  0.30525707  0.93162049  0.60663346     0.12300
H2498       H  0.30062988  0.90615334  0.60920496     0.12600
H2499       H  0.30031607  0.95430107  0.59463244     0.15300
H2500       H  0.26812145  0.96052741  0.59237713     0.14100
H2501       H  0.26615610  0.88705900  0.59765672     0.11800
H2502       H  0.29883702  0.88467645  0.59924719     0.13800
C2503       C  0.36951684  0.99731060  0.65283788     0.19900
C2504       C  0.36928790  0.00838608  0.64271169    -0.18200
C2505       C  0.35788601  0.00958606  0.63298551    -0.10500
C2506       C  0.34661657  0.99957773  0.63317195     0.22100
C2507       C  0.34705534  0.98832004  0.64305887    -0.19800
C2508       C  0.35844117  0.98709255  0.65270514    -0.10700
C2509       C  0.33392086  0.00076454  0.62370603    -0.14800
C2510       C  0.33407825  0.00691847  0.61073907    -0.28700
C2511       C  0.38115705  0.99687120  0.66369109    -0.03000
C2512       C  0.37889548  0.99201916  0.67698448    -0.39500
H2513       H  0.37771920  0.01636996  0.64262503     0.13300
H2514       H  0.35772546  0.01855471  0.62567039     0.12900
H2515       H  0.33853478  0.98043339  0.64332344     0.12300
H2516       H  0.35851580  0.97815130  0.66005851     0.12600
H2517       H  0.32414083  0.99563255  0.62731153     0.15300
H2518       H  0.34389248  0.01130237  0.60642193     0.14100
H2519       H  0.39140923  0.00168076  0.66108841     0.11800
H2520       H  0.36835712  0.98824897  0.68002389     0.13800
C2521       C  0.29596516  0.51418507  0.82672352     0.19900
C2522       C  0.29912829  0.50500378  0.83818868    -0.18200
C2523       C  0.29825908  0.49014628  0.83656854    -0.10500
C2524       C  0.29409320  0.48409752  0.82339400     0.22100
C2525       C  0.29096605  0.49327101  0.81189863    -0.19800
C2526       C  0.29196037  0.50816083  0.81348691    -0.10700
C2527       C  0.29152617  0.46844329  0.82174878    -0.14800
C2528       C  0.29793074  0.45846768  0.82998184    -0.28700
C2529       C  0.29592884  0.52988417  0.82938399    -0.03000
C2530       C  0.29713289  0.53991767  0.81913463    -0.39500
H2531       H  0.30204058  0.50935975  0.84855102     0.13300
H2532       H  0.30027622  0.48350523  0.84583244     0.12900
H2533       H  0.28748635  0.48889895  0.80171605     0.12300
H2534       H  0.28905470  0.51486254  0.80450051     0.12600
H2535       H  0.28367714  0.46506784  0.81377752     0.15300
H2536       H  0.30621809  0.46154026  0.83759636     0.14100
H2537       H  0.29508001  0.53334041  0.84043555     0.11800
H2538       H  0.29881346  0.53688673  0.80809273     0.13800
C2539       C  0.26719620  0.41310788  0.93346096     0.19900
C2540       C  0.26483389  0.42493796  0.92451279    -0.18200
C2541       C  0.26546397  0.42354596  0.90965638    -0.10500
C2542       C  0.26857211  0.41020509  0.90337446     0.22100
C2543       C  0.27063894  0.39831832  0.91235246    -0.19800
C2544       C  0.26996044  0.39971179  0.92721067    -0.10700
C2545       C  0.27088199  0.40836283  0.88773562    -0.14800
C2546       C  0.26776764  0.41832414  0.87778830    -0.28700
C2547       C  0.26853031  0.41554075  0.94910786    -0.03000
C2548       C  0.26742856  0.40516680  0.95904144    -0.39500
H2549       H  0.26290241  0.43542336  0.92906030     0.13300
H2550       H  0.26406674  0.43310307  0.90331119     0.12900
H2551       H  0.27320560  0.38795091  0.90786393     0.12300
H2552       H  0.27228832  0.39042162  0.93371539     0.12600
H2553       H  0.27580709  0.39842369  0.88428887     0.15300
H2554       H  0.26254226  0.42824069  0.88065990     0.14100
H2555       H  0.27136451  0.42632221  0.95252584     0.11800
H2556       H  0.26403125  0.39444132  0.95607672     0.13800
C2557       C  0.16267135  0.51552456  0.70098464     0.19900
C2558       C  0.17124353  0.50711153  0.69203319    -0.18200
C2559       C  0.17073144  0.49208154  0.69269510    -0.10500
C2560       C  0.16147320  0.48513500  0.70227235     0.22100
C2561       C  0.15263977  0.49356826  0.71089789    -0.19800
C2562       C  0.15311224  0.50851268  0.71019933    -0.10700
C2563       C  0.16098251  0.46926919  0.70420407    -0.14800
C2564       C  0.16627515  0.45955187  0.69500707    -0.28700
C2565       C  0.16389603  0.53151143  0.70054350    -0.03000
C2566       C  0.16050226  0.53982773  0.71177941    -0.39500
H2567       H  0.17861831  0.51218791  0.68474458     0.13300
H2568       H  0.17785496  0.48603865  0.68596822     0.12900
H2569       H  0.14530691  0.48855941  0.71827917     0.12300
H2570       H  0.14586868  0.51448015  0.71686941     0.12600
H2571       H  0.15569549  0.46536022  0.71373769     0.15300
H2572       H  0.17113637  0.46291582  0.68509014     0.14100
H2573       H  0.16822440  0.53648850  0.69102188     0.11800
H2574       H  0.15698204  0.53488803  0.72162499     0.13800
C2575       C  0.23406164  0.40790510  0.77913008     0.19900
C2576       C  0.23623203  0.41234827  0.76498411    -0.18200
C2577       C  0.22499134  0.41234442  0.75497393    -0.10500
C2578       C  0.21119355  0.40767411  0.75878476     0.22100
C2579       C  0.20905342  0.40302937  0.77289485    -0.19800
C2580       C  0.22031711  0.40306272  0.78293716    -0.10700
C2581       C  0.19869948  0.40797289  0.74861248    -0.14800
C2582       C  0.19987268  0.40943988  0.73432617    -0.28700
C2583       C  0.24642521  0.40867893  0.78940642    -0.03000
C2584       C  0.24527659  0.40804624  0.80374366    -0.39500
H2585       H  0.24665899  0.41613776  0.76169805     0.13300
H2586       H  0.22720665  0.41635092  0.74440221     0.12900
H2587       H  0.19858734  0.39935429  0.77618603     0.12300
H2588       H  0.21814336  0.39922123  0.79358413     0.12600
H2589       H  0.18806817  0.40687260  0.75309326     0.15300
H2590       H  0.21031304  0.41007853  0.72944559     0.14100
H2591       H  0.25695490  0.41056658  0.78494099     0.11800
H2592       H  0.23492180  0.40661410  0.80865109     0.13800
C2593       C  0.33722054  0.36930101  0.82764266     0.19900
C2594       C  0.35181333  0.37207736  0.83028785    -0.18200
C2595       C  0.36186994  0.36093628  0.83044428    -0.10500
C2596       C  0.35755090  0.34670399  0.82788375     0.22100
C2597       C  0.34301424  0.34393398  0.82514841    -0.19800
C2598       C  0.33299492  0.35505817  0.82485997    -0.10700
C2599       C  0.36769538  0.33440430  0.82859104    -0.14800
C2600       C  0.38177301  0.33544948  0.82576082    -0.28700
C2601       C  0.32683193  0.38149478  0.82784761    -0.03000
C2602       C  0.31255588  0.37980787  0.82913916    -0.39500
H2603       H  0.35542873  0.38289870  0.83245928     0.13300
H2604       H  0.37292728  0.36347211  0.83291703     0.12900
H2605       H  0.33939234  0.33308817  0.82311144     0.12300
H2606       H  0.32201033  0.35235651  0.82232546     0.12600
H2607       H  0.36326598  0.32394636  0.83112288     0.15300
H2608       H  0.38629614  0.34562012  0.82245089     0.14100
H2609       H  0.33116126  0.39230318  0.82752075     0.11800
H2610       H  0.30797450  0.36919795  0.83019389     0.13800
C2611       C  0.41065075  0.28787222  0.93108074     0.19900
C2612       C  0.42040961  0.29519742  0.92244972    -0.18200
C2613       C  0.41953275  0.29428811  0.90760154    -0.10500
C2614       C  0.40858344  0.28628087  0.90090567     0.22100
C2615       C  0.39910694  0.27847075  0.90952694    -0.19800
C2616       C  0.40008238  0.27927632  0.92450532    -0.10700
C2617       C  0.40693950  0.28600226  0.88501869    -0.14800
C2618       C  0.41139087  0.29696526  0.87681573    -0.28700
C2619       C  0.41140982  0.29046283  0.94673439    -0.03000
C2620       C  0.40663857  0.28145806  0.95689208    -0.39500
H2621       H  0.42874819  0.30176552  0.92723368     0.13300
H2622       H  0.42750093  0.29991216  0.90144320     0.12900
H2623       H  0.39068589  0.27207600  0.90466591     0.12300
H2624       H  0.39228471  0.27360620  0.93084576     0.12600
H2625       H  0.40174758  0.27682432  0.88003825     0.15300
H2626       H  0.41589015  0.30647362  0.88179733     0.14100
H2627       H  0.41669023  0.30031368  0.95008534     0.11800
H2628       H  0.40203360  0.27115489  0.95404688     0.13800
C2629       C  0.40158091  0.24125993  0.78878744     0.19900
C2630       C  0.39961797  0.22677547  0.79238405    -0.18200
C2631       C  0.39978133  0.21604790  0.78186917    -0.10500
C2632       C  0.40204481  0.21956911  0.76741929     0.22100
C2633       C  0.40397377  0.23406952  0.76386692    -0.19800
C2634       C  0.40377041  0.24476252  0.77434878    -0.10700
C2635       C  0.40299750  0.20869107  0.75569806    -0.14800
C2636       C  0.40079861  0.19446225  0.75713103    -0.28700
C2637       C  0.40238407  0.25222955  0.80042355    -0.03000
C2638       C  0.40051488  0.26639515  0.79827712    -0.39500
H2639       H  0.39807766  0.22371918  0.80342810     0.13300
H2640       H  0.39837116  0.20508109  0.78523894     0.12900
H2641       H  0.40587838  0.23716315  0.75289346     0.12300
H2642       H  0.40580352  0.25567668  0.77108430     0.12600
H2643       H  0.40581251  0.21269354  0.74518824     0.15300
H2644       H  0.39781598  0.18991237  0.76731872     0.14100
H2645       H  0.40492852  0.24849198  0.81114614     0.11800
H2646       H  0.39743996  0.27035198  0.78779769     0.13800
C2647       C  0.39795297  0.06343781  0.72426248     0.19900
C2648       C  0.39318545  0.07295378  0.71363912    -0.18200
C2649       C  0.39310268  0.08769807  0.71602132    -0.10500
C2650       C  0.39796728  0.09340205  0.72909625     0.22100
C2651       C  0.40201972  0.08390500  0.74005718    -0.19800
C2652       C  0.40212290  0.06903691  0.73765923    -0.10700
C2653       C  0.39922877  0.10918938  0.73122237    -0.14800
C2654       C  0.40278583  0.11793336  0.72036834    -0.28700
C2655       C  0.39935724  0.04805890  0.72026817    -0.03000
C2656       C  0.40165146  0.03704395  0.72932465    -0.39500
H2657       H  0.38975894  0.06897975  0.70327740     0.13300
H2658       H  0.38935661  0.09462925  0.70751078     0.12900
H2659       H  0.40565734  0.08802357  0.75028698     0.12300
H2660       H  0.40595034  0.06210106  0.74610988     0.12600
H2661       H  0.39798864  0.11355762  0.74189408     0.15300
H2662       H  0.40504718  0.11337480  0.70996361     0.14100
H2663       H  0.39861393  0.04569737  0.70890851     0.11800
H2664       H  0.40194196  0.03868490  0.74079022     0.13800
C2665       C  0.29987107  0.18010663  0.51841657     0.19900
C2666       C  0.28998737  0.18708839  0.50942303    -0.18200
C2667       C  0.29119763  0.18636687  0.49457356    -0.10500
C2668       C  0.30229867  0.17849296  0.48830037     0.22100
C2669       C  0.31252774  0.17197002  0.49723773    -0.19800
C2670       C  0.31129740  0.17264957  0.51214054    -0.10700
C2671       C  0.30326233  0.17666188  0.47253371    -0.14800
C2672       C  0.29155941  0.17628192  0.46403102    -0.28700
C2673       C  0.29728621  0.18036797  0.53411664    -0.03000
C2674       C  0.30662470  0.17596439  0.54428188    -0.39500
H2675       H  0.28115102  0.19301961  0.51390856     0.13300
H2676       H  0.28338903  0.19196318  0.48805042     0.12900
H2677       H  0.32123789  0.16592120  0.49266913     0.12300
H2678       H  0.31909500  0.16698251  0.51857992     0.12600
H2679       H  0.31369095  0.17453943  0.46796603     0.15300
H2680       H  0.28100859  0.17737494  0.46864377     0.14100
H2681       H  0.28693230  0.18435973  0.53749124     0.11800
H2682       H  0.31720603  0.17221490  0.54151416     0.13800
C2683       C  0.34019646  0.17923176  0.64506140     0.19900
C2684       C  0.33713417  0.17979052  0.65971898    -0.18200
C2685       C  0.34811866  0.17945743  0.67004181    -0.10500
C2686       C  0.36256592  0.17833991  0.66598543     0.22100
C2687       C  0.36565015  0.17813233  0.65131824    -0.19800
C2688       C  0.35465759  0.17849421  0.64098515    -0.10700
C2689       C  0.37466333  0.17722946  0.67660731    -0.14800
C2690       C  0.37295653  0.17323806  0.69034521    -0.28700
C2691       C  0.32799941  0.17864775  0.63453853    -0.03000
C2692       C  0.32921044  0.18115079  0.62039299    -0.39500
H2693       H  0.32614176  0.18042715  0.66323024     0.13300
H2694       H  0.34515441  0.18012772  0.68114748     0.12900
H2695       H  0.37663373  0.17733464  0.64781513     0.12300
H2696       H  0.35759773  0.17776550  0.62987558     0.12600
H2697       H  0.38546038  0.17903234  0.67277763     0.15300
H2698       H  0.36237100  0.17072907  0.69426461     0.14100
H2699       H  0.31749920  0.17596707  0.63867202     0.11800
H2700       H  0.33940536  0.18436589  0.61598475     0.13800
C2701       C  0.28102397  0.10461525  0.59573844     0.19900
C2702       C  0.28285571  0.09472126  0.60692983    -0.18200
C2703       C  0.28202262  0.07992288  0.60433123    -0.10500
C2704       C  0.27951484  0.07474300  0.59039478     0.22100
C2705       C  0.27736552  0.08464600  0.57932202    -0.19800
C2706       C  0.27807082  0.09936157  0.58192238    -0.10700
C2707       C  0.28093734  0.05934534  0.58652898    -0.14800
C2708       C  0.27939705  0.04829208  0.59563901    -0.28700
C2709       C  0.28374459  0.12016082  0.59836335    -0.03000
C2710       C  0.27844454  0.13055918  0.58985832    -0.39500
H2711       H  0.28533522  0.09844582  0.61763247     0.13300
H2712       H  0.28408752  0.07262796  0.61308597     0.12900
H2713       H  0.27563203  0.08096863  0.56846374     0.12300
H2714       H  0.27705508  0.10651204  0.57288634     0.12600
H2715       H  0.28388832  0.05704033  0.57556194     0.15300
H2716       H  0.27578304  0.05009514  0.60646972     0.14100
H2717       H  0.29081389  0.12306863  0.60719538     0.11800
H2718       H  0.27080913  0.12790367  0.58145306     0.13800
C2719       C  0.17586189  0.29196733  0.47918419     0.19900
C2720       C  0.17275115  0.28044161  0.48824985    -0.18200
C2721       C  0.17362919  0.28191049  0.50307515    -0.10500
C2722       C  0.17733424  0.29513381  0.50937140     0.22100
C2723       C  0.18097849  0.30657298  0.50030883    -0.19800
C2724       C  0.18021004  0.30505761  0.48536756    -0.10700
C2725       C  0.17734607  0.29727482  0.52525258    -0.14800
C2726       C  0.16978494  0.28880508  0.53410730    -0.28700
C2727       C  0.17382680  0.28975182  0.46350584    -0.03000
C2728       C  0.17904383  0.29826264  0.45315066    -0.39500
H2729       H  0.16957197  0.27017902  0.48383447     0.13300
H2730       H  0.17141359  0.27255315  0.50948199     0.12900
H2731       H  0.18406325  0.31682573  0.50480067     0.12300
H2732       H  0.18263454  0.31425368  0.47879740     0.12600
H2733       H  0.18327950  0.30628039  0.52969591     0.15300
H2734       H  0.16331135  0.28017442  0.52975766     0.14100
H2735       H  0.16787964  0.28023719  0.46030134     0.11800
H2736       H  0.18543654  0.30761902  0.45578756     0.13800
C2737       C  0.23970983  0.22147238  0.59619232     0.19900
C2738       C  0.22501399  0.21842038  0.59486876    -0.18200
C2739       C  0.21495957  0.22947025  0.59338540    -0.10500
C2740       C  0.21939519  0.24389328  0.59331330     0.22100
C2741       C  0.23404133  0.24693916  0.59494304    -0.19800
C2742       C  0.24406312  0.23592498  0.59650583    -0.10700
C2743       C  0.20932687  0.25602724  0.59074985    -0.14800
C2744       C  0.19509027  0.25545346  0.59294630    -0.28700
C2745       C  0.25012074  0.20935333  0.59701557    -0.03000
C2746       C  0.26408402  0.21071332  0.59376883    -0.39500
H2747       H  0.22131932  0.20741840  0.59462904     0.13300
H2748       H  0.20382139  0.22662002  0.59186724     0.12900
H2749       H  0.23777154  0.25793288  0.59498465     0.12300
H2750       H  0.25517190  0.23886919  0.59799451     0.12600
H2751       H  0.21394385  0.26600467  0.58695733     0.15300
H2752       H  0.19020922  0.24587404  0.59729332     0.14100
H2753       H  0.24597893  0.19877583  0.59953791     0.11800
H2754       H  0.26832869  0.22098238  0.59044820     0.13800
C2755       C  0.16988979  0.34103956  0.63237979     0.19900
C2756       C  0.15767142  0.34702272  0.63860607    -0.18200
C2757       C  0.15885513  0.35800951  0.64873895    -0.10500
C2758       C  0.17236185  0.36315297  0.65314675     0.22100
C2759       C  0.18463646  0.35704473  0.64705994    -0.19800
C2760       C  0.18343134  0.34621721  0.63665521    -0.10700
C2761       C  0.17386129  0.37409350  0.66475476    -0.14800
C2762       C  0.16399013  0.38433999  0.66711105    -0.28700
C2763       C  0.16800830  0.32883244  0.62222250    -0.03000
C2764       C  0.17653638  0.32628351  0.61095504    -0.39500
H2765       H  0.14712621  0.34311328  0.63566126     0.13300
H2766       H  0.14916306  0.36209717  0.65346586     0.12900
H2767       H  0.19517882  0.36062461  0.65040804     0.12300
H2768       H  0.19308024  0.34160718  0.63231624     0.12600
H2769       H  0.18337943  0.37371650  0.67151078     0.15300
H2770       H  0.15493951  0.38539930  0.65982529     0.14100
H2771       H  0.15859389  0.32213470  0.62361093     0.11800
H2772       H  0.18540569  0.33344628  0.60872550     0.13800
C2773       C  0.00217428  0.51539544  0.70045820     0.19900
C2774       C  0.99526420  0.50652660  0.69040414    -0.18200
C2775       C  0.99641965  0.49158689  0.69134112    -0.10500
C2776       C  0.00466355  0.48527971  0.70231256     0.22100
C2777       C  0.01204565  0.49418365  0.71195678    -0.19800
C2778       C  0.01094494  0.50905494  0.71098572    -0.10700
C2779       C  0.00478786  0.46961131  0.70498692    -0.14800
C2780       C  0.00202558  0.45953471  0.69504433    -0.28700
C2781       C  0.99989524  0.53115429  0.69989063    -0.03000
C2782       C  0.00059666  0.53943306  0.71165116    -0.39500
H2783       H  0.98854239  0.51115001  0.68212368     0.13300
H2784       H  0.99038207  0.48505948  0.68385911     0.12900
H2785       H  0.01853701  0.48959685  0.72044302     0.12300
H2786       H  0.01691333  0.51552096  0.71857489     0.12600
H2787       H  0.00720213  0.46621953  0.71585663     0.15300
H2788       H  0.00033391  0.46245265  0.68393685     0.14100
H2789       H  0.99685075  0.53593270  0.68972487     0.11800
H2790       H  0.00279178  0.53465736  0.72200696     0.13800
C2791       C  0.09479015  0.40870979  0.72279695     0.19900
C2792       C  0.08546996  0.41969158  0.72699124    -0.18200
C2793       C  0.07069249  0.41729166  0.72773579    -0.10500
C2794       C  0.06488008  0.40385176  0.72410713     0.22100
C2795       C  0.07422249  0.39274497  0.72035427    -0.19800
C2796       C  0.08901529  0.39508881  0.71978030    -0.10700
C2797       C  0.04924234  0.40181196  0.72176435    -0.14800
C2798       C  0.03904840  0.40959248  0.72823396    -0.28700
C2799       C  0.11009609  0.41228900  0.72013766    -0.03000
C2800       C  0.12072516  0.40256249  0.71967678    -0.39500
H2801       H  0.08958736  0.43031932  0.72921172     0.13300
H2802       H  0.06380955  0.42622766  0.73027294     0.12900
H2803       H  0.07000135  0.38236950  0.71727374     0.12300
H2804       H  0.09573740  0.38642714  0.71616701     0.12600
H2805       H  0.04605775  0.39426229  0.71347378     0.15300
H2806       H  0.04177653  0.41657795  0.73712565     0.14100
H2807       H  0.11266018  0.42347196  0.71815209     0.11800
H2808       H  0.11868094  0.39145335  0.72238577     0.13800
C2809       C  0.00258808  0.29839058  0.48045713     0.19900
C2810       C  0.99330350  0.30710995  0.48824163    -0.18200
C2811       C  0.99217028  0.30551750  0.50300661    -0.10500
C2812       C  0.00054243  0.29531701  0.51030350     0.22100
C2813       C  0.00987686  0.28662645  0.50253141    -0.19800
C2814       C  0.01101256  0.28822201  0.48775516    -0.10700
C2815       C  0.99967489  0.29339928  0.52596167    -0.14800
C2816       C  0.99636689  0.30417618  0.53483262    -0.28700
C2817       C  0.00295480  0.29996662  0.46473369    -0.03000
C2818       C  0.00568434  0.28889805  0.45604292    -0.39500
H2819       H  0.98665837  0.31494880  0.48283291     0.13300
H2820       H  0.98454477  0.31210733  0.50860667     0.12900
H2821       H  0.01644060  0.27871834  0.50793683     0.12300
H2822       H  0.01856517  0.28157057  0.48212688     0.12600
H2823       H  0.00253435  0.28300907  0.53036680     0.15300
H2824       H  0.99435488  0.31484780  0.53070248     0.14100
H2825       H  0.99971386  0.31017055  0.46015479     0.11800
H2826       H  0.00803962  0.27839462  0.46042198     0.13800
C2827       C  0.09521133  0.28443592  0.58735409     0.19900
C2828       C  0.08573865  0.27290193  0.58503798    -0.18200
C2829       C  0.07083214  0.27506316  0.58487751    -0.10500
C2830       C  0.06515918  0.28882735  0.58720186     0.22100
C2831       C  0.07465738  0.30016805  0.59000955    -0.19800
C2832       C  0.08942468  0.29801330  0.59021474    -0.10700
C2833       C  0.04962510  0.29230265  0.58609677    -0.14800
C2834       C  0.03869356  0.28284647  0.58654784    -0.28700
C2835       C  0.11104310  0.28222336  0.58677213    -0.03000
C2836       C  0.12002587  0.29277552  0.58272544    -0.39500
H2837       H  0.08988690  0.26229422  0.58296289     0.13300
H2838       H  0.06388523  0.26606022  0.58254910     0.12900
H2839       H  0.07063027  0.31084776  0.59198912     0.12300
H2840       H  0.09627072  0.30706697  0.59266419     0.12600
H2841       H  0.04704599  0.30360082  0.58500419     0.15300
H2842       H  0.04065772  0.27149988  0.58803037     0.14100
H2843       H  0.11531118  0.27168866  0.58923583     0.11800
H2844       H  0.11567527  0.30299213  0.57930583     0.13800
C2845       C  0.99486191  0.36819871  0.65435974     0.19900
C2846       C  0.99693477  0.37124911  0.63984836    -0.18200
C2847       C  0.99677393  0.36032532  0.62965264    -0.10500
C2848       C  0.99435971  0.34603133  0.63375158     0.22100
C2849       C  0.99217665  0.34297710  0.64824056    -0.19800
C2850       C  0.99232031  0.35390297  0.65844015    -0.10700
C2851       C  0.99447959  0.33393956  0.62343626    -0.14800
C2852       C  0.99319247  0.33546730  0.60918808    -0.28700
C2853       C  0.99542013  0.38028497  0.66471123    -0.03000
C2854       C  0.99599739  0.37870860  0.67898479    -0.39500
H2855       H  0.99890495  0.38214168  0.63638429     0.13300
H2856       H  0.99885843  0.36317893  0.61868519     0.12900
H2857       H  0.99028929  0.33206494  0.65169522     0.12300
H2858       H  0.99033182  0.35098747  0.66940174     0.12600
H2859       H  0.99548583  0.32320832  0.62783812     0.15300
H2860       H  0.99171963  0.34592116  0.60437640     0.14100
H2861       H  0.99561375  0.39106472  0.66032351     0.11800
H2862       H  0.99601660  0.36820430  0.68388123     0.13800
C2863       C  0.69794113  0.16852260  0.47911599     0.19900
C2864       C  0.68839997  0.17734097  0.48658564    -0.18200
C2865       C  0.68864989  0.17782785  0.50159988    -0.10500
C2866       C  0.69840028  0.16933916  0.50944832     0.22100
C2867       C  0.70762800  0.16028068  0.50193672    -0.19800
C2868       C  0.70734865  0.15976946  0.48703433    -0.10700
C2869       C  0.69981663  0.16968650  0.52534684    -0.14800
C2870       C  0.69033530  0.17550396  0.53441605    -0.28700
C2871       C  0.69774449  0.16838233  0.46314654    -0.03000
C2872       C  0.70928653  0.16468311  0.45546775    -0.39500
H2873       H  0.68092108  0.18407262  0.48078193     0.13300
H2874       H  0.68141124  0.18504822  0.50691476     0.12900
H2875       H  0.71513318  0.15349320  0.50764451     0.12300
H2876       H  0.71445144  0.15234049  0.48181220     0.12600
H2877       H  0.70921117  0.16448480  0.52989170     0.15300
H2878       H  0.68060277  0.18047354  0.53045464     0.14100
H2879       H  0.68799009  0.17159062  0.45760442     0.11800
H2880       H  0.71930117  0.16222032  0.46088854     0.13800
C2881       C  0.50846019  0.17081734  0.70999889     0.19900
C2882       C  0.50066755  0.17451048  0.72222103    -0.18200
C2883       C  0.48570034  0.17505196  0.72185301    -0.10500
C2884       C  0.47807373  0.17178132  0.70922507     0.22100
C2885       C  0.48582785  0.16848919  0.69688076    -0.19800
C2886       C  0.50084109  0.16788925  0.69725557    -0.10700
C2887       C  0.46209371  0.17161886  0.70869405    -0.14800
C2888       C  0.45418772  0.16790571  0.72006138    -0.28700
C2889       C  0.52437478  0.16962208  0.71133500    -0.03000
C2890       C  0.53356461  0.16880033  0.70031276    -0.39500
H2891       H  0.50619159  0.17692741  0.73216644     0.13300
H2892       H  0.48014644  0.17808611  0.73147522     0.12900
H2893       H  0.48023004  0.16598639  0.68700117     0.12300
H2894       H  0.50632654  0.16480358  0.68762885     0.12600
H2895       H  0.45676587  0.17371179  0.69853505     0.15300
H2896       H  0.45951467  0.16480403  0.72994665     0.14100
H2897       H  0.52879604  0.16960205  0.72212264     0.11800
H2898       H  0.52971766  0.16932178  0.68936672     0.13800
C2899       C  0.62802678  0.17320111  0.65512432     0.19900
C2900       C  0.62578934  0.17124608  0.64037520    -0.18200
C2901       C  0.63718336  0.17202796  0.63076081    -0.10500
C2902       C  0.65121009  0.17491844  0.63562450     0.22100
C2903       C  0.65348787  0.17687152  0.65036123    -0.19800
C2904       C  0.64207278  0.17615870  0.65998491    -0.10700
C2905       C  0.66374491  0.17528171  0.62576642    -0.14800
C2906       C  0.66265110  0.17827080  0.61168181    -0.28700
C2907       C  0.61540993  0.17211394  0.66488387    -0.03000
C2908       C  0.61637782  0.17077690  0.67922109    -0.39500
H2909       H  0.61516387  0.16890789  0.63625711     0.13300
H2910       H  0.63496543  0.17002101  0.61957546     0.12900
H2911       H  0.66415354  0.17905941  0.65444913     0.12300
H2912       H  0.64438902  0.17805812  0.67115701     0.12600
H2913       H  0.67425623  0.17309108  0.63030910     0.15300
H2914       H  0.65234439  0.18108862  0.60707888     0.14100
H2915       H  0.60482661  0.17191415  0.65996772     0.11800
H2916       H  0.62676156  0.17041745  0.68445070     0.13800
C2917       C  0.82428780  0.29917247  0.47906567     0.19900
C2918       C  0.83544537  0.30279774  0.48855071    -0.18200
C2919       C  0.83323169  0.30312690  0.50329505    -0.10500
C2920       C  0.81974217  0.29974310  0.50896459     0.22100
C2921       C  0.80848592  0.29637338  0.49945403    -0.19800
C2922       C  0.81067982  0.29617474  0.48465125    -0.10700
C2923       C  0.81748385  0.29825866  0.52465461    -0.14800
C2924       C  0.82586141  0.30463771  0.53460477    -0.28700
C2925       C  0.82773783  0.29703225  0.46372584    -0.03000
C2926       C  0.81814043  0.29766433  0.45290552    -0.39500
H2927       H  0.84607234  0.30497212  0.48455320     0.13300
H2928       H  0.84232836  0.30535010  0.51018063     0.12900
H2929       H  0.79804254  0.29353346  0.50351532     0.12300
H2930       H  0.80190425  0.29299320  0.47771066     0.12600
H2931       H  0.80886971  0.29127327  0.52812170     0.15300
H2932       H  0.83412431  0.31213039  0.53142779     0.14100
H2933       H  0.83883187  0.29469094  0.46124217     0.11800
H2934       H  0.80718408  0.30089910  0.45484942     0.13800
C2935       C  0.75326211  0.21998299  0.58541202     0.19900
C2936       C  0.76698612  0.21895736  0.59161300    -0.18200
C2937       C  0.77681009  0.23033802  0.59071215    -0.10500
C2938       C  0.77318612  0.24306300  0.58340458     0.22100
C2939       C  0.75952550  0.24395060  0.57702418    -0.19800
C2940       C  0.74971207  0.23262119  0.57798596    -0.10700
C2941       C  0.78319424  0.25555704  0.58181963    -0.14800
C2942       C  0.79629582  0.25667858  0.58796943    -0.28700
C2943       C  0.74318781  0.20748814  0.58622583    -0.03000
C2944       C  0.72882598  0.20883025  0.58527364    -0.39500
H2945       H  0.77011816  0.20930122  0.59722791     0.13300
H2946       H  0.78720215  0.22894487  0.59565641     0.12900
H2947       H  0.75641954  0.25346718  0.57115798     0.12300
H2948       H  0.73948175  0.23371736  0.57259353     0.12600
H2949       H  0.77953569  0.26436345  0.57513501     0.15300
H2950       H  0.80042326  0.24822121  0.59474876     0.14100
H2951       H  0.74773996  0.19689180  0.58772098     0.11800
H2952       H  0.72413349  0.21941547  0.58444994     0.13800
C2953       C  0.92602631  0.28268392  0.58243935     0.19900
C2954       C  0.91632063  0.28243215  0.57091199    -0.18200
C2955       C  0.90157726  0.28235241  0.57320953    -0.10500
C2956       C  0.89613480  0.28266779  0.58716143     0.22100
C2957       C  0.90582420  0.28273221  0.59874155    -0.19800
C2958       C  0.92064405  0.28261375  0.59643331    -0.10700
C2959       C  0.88052668  0.28442619  0.58971084    -0.14800
C2960       C  0.87048988  0.27934286  0.58060040    -0.28700
C2961       C  0.94145355  0.28486098  0.57934381    -0.03000
C2962       C  0.95231226  0.28145551  0.58828847    -0.39500
H2963       H  0.92016903  0.28273253  0.56003513     0.13300
H2964       H  0.89449743  0.28277910  0.56400182     0.12900
H2965       H  0.90191334  0.28319913  0.60958565     0.12300
H2966       H  0.92779587  0.28320078  0.60557670     0.12600
H2967       H  0.87726271  0.29052082  0.59901248     0.15300
H2968       H  0.87363070  0.27257232  0.57174523     0.14100
H2969       H  0.94394648  0.28993944  0.56921189     0.11800
H2970       H  0.95029062  0.27573851  0.59815915     0.13800
C2971       C  0.51336840  0.29685287  0.82731687     0.19900
C2972       C  0.50511948  0.30609111  0.81871634    -0.18200
C2973       C  0.49010315  0.30553528  0.81888304    -0.10500
C2974       C  0.48296193  0.29576887  0.82781914     0.22100
C2975       C  0.49122627  0.28669414  0.83654760    -0.19800
C2976       C  0.50618259  0.28727840  0.83641124    -0.10700
C2977       C  0.46703674  0.29442895  0.82841412    -0.14800
C2978       C  0.45762632  0.30405080  0.82311300    -0.28700
C2979       C  0.52935242  0.29761036  0.82665203    -0.03000
C2980       C  0.53799480  0.28687577  0.83099111    -0.39500
H2981       H  0.51031931  0.31364032  0.81167298     0.13300
H2982       H  0.48423443  0.31262059  0.81183734     0.12900
H2983       H  0.48607676  0.27914673  0.84363108     0.12300
H2984       H  0.51198117  0.28030448  0.84362731     0.12600
H2985       H  0.46282786  0.28518732  0.83405977     0.15300
H2986       H  0.46130909  0.31367515  0.81782213     0.14100
H2987       H  0.53414364  0.30714196  0.82204357     0.11800
H2988       H  0.53345728  0.27701477  0.83505633     0.13800
C2989       C  0.58914071  0.21434542  0.75947252     0.19900
C2990       C  0.59884828  0.21517923  0.77099362    -0.18200
C2991       C  0.59881263  0.22700746  0.78023247    -0.10500
C2992       C  0.58884908  0.23816112  0.77824493     0.22100
C2993       C  0.57910332  0.23722510  0.76677245    -0.19800
C2994       C  0.57916595  0.22545663  0.75755346    -0.10700
C2995       C  0.58814036  0.25096325  0.78773568    -0.14800
C2996       C  0.59354272  0.25149044  0.80111692    -0.28700
C2997       C  0.58925360  0.20158859  0.74992590    -0.03000
C2998       C  0.58503803  0.20219821  0.73614493    -0.39500
H2999       H  0.60659408  0.20672952  0.77274676     0.13300
H3000       H  0.60670024  0.22739879  0.78875354     0.12900
H3001       H  0.57124309  0.24557228  0.76503194     0.12300
H3002       H  0.57118643  0.22498592  0.74910698     0.12600
H3003       H  0.58209932  0.26011289  0.78380697     0.15300
H3004       H  0.59905162  0.24232829  0.80565726     0.14100
H3005       H  0.59306346  0.19149897  0.75430469     0.11800
H3006       H  0.58199142  0.21238556  0.73144790     0.13800
C3007       C  0.59769435  0.27447562  0.92924726     0.19900
C3008       C  0.60157511  0.28660538  0.92133238    -0.18200
C3009       C  0.60230967  0.28607257  0.90650285    -0.10500
C3010       C  0.59891830  0.27339899  0.89911432     0.22100
C3011       C  0.59600823  0.26093644  0.90701914    -0.19800
C3012       C  0.59531275  0.26145528  0.92200575    -0.10700
C3013       C  0.59765826  0.27328351  0.88324906    -0.14800
C3014       C  0.59310923  0.28491556  0.87600832    -0.28700
C3015       C  0.59501520  0.27658235  0.94470952    -0.03000
C3016       C  0.59373938  0.26627423  0.95470427    -0.39500
H3017       H  0.60367594  0.29672713  0.92663373     0.13300
H3018       H  0.60524804  0.29572639  0.90084020     0.12900
H3019       H  0.59357190  0.25097684  0.90156565     0.12300
H3020       H  0.59227182  0.25189106  0.92774785     0.12600
H3021       H  0.59945932  0.26330670  0.87757136     0.15300
H3022       H  0.59025422  0.29456391  0.88177767     0.14100
H3023       H  0.59393622  0.28767336  0.94807918     0.11800
H3024       H  0.59536397  0.25507255  0.95212558     0.13800
C3025       C  0.65318172  0.36221237  0.81837652     0.19900
C3026       C  0.63943379  0.36238474  0.81217679    -0.18200
C3027       C  0.63055715  0.35026542  0.81267195    -0.10500
C3028       C  0.63516489  0.33768066  0.81962904     0.22100
C3029       C  0.64901687  0.33746082  0.82561781    -0.19800
C3030       C  0.65789139  0.34954860  0.82508354    -0.10700
C3031       C  0.62594481  0.32466454  0.82123357    -0.14800
C3032       C  0.61167511  0.32431027  0.81885276    -0.28700
C3033       C  0.66193869  0.37561930  0.81838513    -0.03000
C3034       C  0.67628958  0.37575494  0.81990174    -0.39500
H3035       H  0.63551612  0.37197481  0.80694741     0.13300
H3036       H  0.62014125  0.35091371  0.80760541     0.12900
H3037       H  0.65289425  0.32797373  0.83106290     0.12300
H3038       H  0.66822808  0.34901284  0.83035328     0.12600
H3039       H  0.63107589  0.31505008  0.82533324     0.15300
H3040       H  0.60603936  0.33374706  0.81514687     0.14100
H3041       H  0.65634064  0.38574093  0.81715704     0.11800
H3042       H  0.68214230  0.36575671  0.82056869     0.13800
C3043       C  0.70659376  0.40290202  0.92682480     0.19900
C3044       C  0.69556433  0.39982759  0.91701068    -0.18200
C3045       C  0.69792839  0.40039645  0.90233124    -0.10500
C3046       C  0.71138617  0.40436445  0.89698101     0.22100
C3047       C  0.72266627  0.40679490  0.90675499    -0.19800
C3048       C  0.72030191  0.40614628  0.92156753    -0.10700
C3049       C  0.71363907  0.40615895  0.88129501    -0.14800
C3050       C  0.70295196  0.41060464  0.87261339    -0.28700
C3051       C  0.70279841  0.40378441  0.94222497    -0.03000
C3052       C  0.71203898  0.40296483  0.95336850    -0.39500
H3053       H  0.68493866  0.39716057  0.92072684     0.13300
H3054       H  0.68911229  0.39780208  0.89519912     0.12900
H3055       H  0.73318379  0.40970063  0.90293218     0.12300
H3056       H  0.72903664  0.40872693  0.92879687     0.12600
H3057       H  0.72418776  0.40420336  0.87693913     0.15300
H3058       H  0.69270364  0.41339702  0.87719734     0.14100
H3059       H  0.69149650  0.40518583  0.94449844     0.11800
H3060       H  0.72330894  0.40086524  0.95166869     0.13800
C3061       C  0.81720906  0.36597887  0.65115325     0.19900
C3062       C  0.81825402  0.36827603  0.63633723    -0.18200
C3063       C  0.81876346  0.35674678  0.62671759    -0.10500
C3064       C  0.81816507  0.34251992  0.63167719     0.22100
C3065       C  0.81692009  0.34021570  0.64644341    -0.19800
C3066       C  0.81634011  0.35172405  0.65604814    -0.10700
C3067       C  0.81957150  0.32980309  0.62204023    -0.14800
C3068       C  0.81718361  0.32998981  0.60779098    -0.28700
C3069       C  0.81731446  0.37872041  0.66097151    -0.03000
C3070       C  0.81868224  0.37801831  0.67534531    -0.39500
H3071       H  0.81895109  0.37907621  0.63217375     0.13300
H3072       H  0.82002895  0.35907463  0.61548717     0.12900
H3073       H  0.81642748  0.32940353  0.65060704     0.12300
H3074       H  0.81523521  0.34926061  0.66725153     0.12600
H3075       H  0.82261929  0.31972309  0.62699809     0.15300
H3076       H  0.81359265  0.33972277  0.60257229     0.14100
H3077       H  0.81686533  0.38925564  0.65604934     0.11800
H3078       H  0.81960849  0.36775747  0.68065830     0.13800
C3079       C  0.75671033  0.41130515  0.77933256     0.19900
C3080       C  0.77095475  0.40664554  0.78074832    -0.18200
C3081       C  0.78025366  0.40685102  0.76903909    -0.10500
C3082       C  0.77552956  0.41188666  0.75559863     0.22100
C3083       C  0.76130965  0.41657756  0.75423979    -0.19800
C3084       C  0.75206602  0.41640670  0.76590448    -0.10700
C3085       C  0.78479279  0.41238766  0.74263895    -0.14800
C3086       C  0.79918032  0.41104204  0.74269873    -0.28700
C3087       C  0.74715357  0.41117791  0.79209492    -0.03000
C3088       C  0.73274992  0.41134110  0.79104818    -0.39500
H3089       H  0.77488461  0.40272681  0.79094281     0.13300
H3090       H  0.79102319  0.40291714  0.77059803     0.12900
H3091       H  0.75734149  0.42058863  0.74409661     0.12300
H3092       H  0.74139179  0.42059378  0.76432719     0.12600
H3093       H  0.77945666  0.41446382  0.73248500     0.15300
H3094       H  0.80500698  0.40942834  0.75262603     0.14100
H3095       H  0.75211625  0.41080596  0.80263448     0.11800
H3096       H  0.72760885  0.41104609  0.78062241     0.13800
C3097       C  0.92651235  0.41379667  0.71247054     0.19900
C3098       C  0.91801208  0.41137380  0.70026313    -0.18200
C3099       C  0.90311274  0.41120785  0.70103639    -0.10500
C3100       C  0.89620092  0.41374641  0.71407540     0.22100
C3101       C  0.90468935  0.41598033  0.72639168    -0.19800
C3102       C  0.91971490  0.41605045  0.72562446    -0.10700
C3103       C  0.88024206  0.41371792  0.71511874    -0.14800
C3104       C  0.87158540  0.41638338  0.70381590    -0.28700
C3105       C  0.94229190  0.41452854  0.71056618    -0.03000
C3106       C  0.95234096  0.41291118  0.72090498    -0.39500
H3107       H  0.92294474  0.40951719  0.68999869     0.13300
H3108       H  0.89712273  0.40886422  0.69137630     0.12900
H3109       H  0.89967297  0.41786840  0.73660190     0.12300
H3110       H  0.92590325  0.41816211  0.73522452     0.12600
H3111       H  0.87551066  0.41171077  0.72548668     0.15300
H3112       H  0.87614647  0.41925765  0.69360153     0.14100
H3113       H  0.94586042  0.41607472  0.69965185     0.11800
H3114       H  0.94935805  0.41067726  0.73185158     0.13800
C3115       C  0.47925786  0.99935050  0.69455449     0.19900
C3116       C  0.48670354  0.99396820  0.68275763    -0.18200
C3117       C  0.50171439  0.99422163  0.68255325    -0.10500
C3118       C  0.50952212  0.00003250  0.69414851     0.22100
C3119       C  0.50200165  0.00587506  0.70564043    -0.19800
C3120       C  0.48710109  0.00566708  0.70581233    -0.10700
C3121       C  0.52540525  0.99984478  0.69525289    -0.14800
C3122       C  0.53440667  0.99643826  0.68465366    -0.28700
C3123       C  0.46337833  0.99822416  0.69495390    -0.03000
C3124       C  0.45619919  0.99780631  0.70733831    -0.39500
H3125       H  0.48090921  0.98921313  0.67386554     0.13300
H3126       H  0.50704856  0.98954799  0.67349148     0.12900
H3127       H  0.50769257  0.01057997  0.71462706     0.12300
H3128       H  0.48181571  0.01054352  0.71480936     0.12600
H3129       H  0.52998713  0.00275745  0.70557440     0.15300
H3130       H  0.53046180  0.99378874  0.67405436     0.14100
H3131       H  0.45753078  0.99717173  0.68491371     0.11800
H3132       H  0.46195937  0.99800002  0.71745167     0.13800
C3133       C  0.58856174  0.09439283  0.71344741     0.19900
C3134       C  0.59829109  0.08617989  0.70564148    -0.18200
C3135       C  0.59803264  0.07123734  0.70634372    -0.10500
C3136       C  0.58775918  0.06408761  0.71463750     0.22100
C3137       C  0.57852752  0.07230790  0.72309188    -0.19800
C3138       C  0.57888103  0.08733985  0.72249156    -0.10700
C3139       C  0.58603885  0.04818567  0.71400819    -0.14800
C3140       C  0.58873315  0.04082833  0.70195989    -0.28700
C3141       C  0.58790335  0.11005762  0.71067878    -0.03000
C3142       C  0.58371790  0.11988772  0.72027443    -0.39500
H3143       H  0.60594739  0.09135443  0.69871303     0.13300
H3144       H  0.60572840  0.06531571  0.70013433     0.12900
H3145       H  0.57059000  0.06709170  0.72966165     0.12300
H3146       H  0.57111767  0.09335812  0.72852688     0.12600
H3147       H  0.58136498  0.04266096  0.72305461     0.15300
H3148       H  0.59227751  0.04656861  0.69254671     0.14100
H3149       H  0.59127303  0.11368521  0.70019821     0.11800
H3150       H  0.58129832  0.11673249  0.73114810     0.13800
C3151       C  0.71206537  0.99802081  0.47427194     0.19900
C3152       C  0.70008670  0.00380431  0.48103130    -0.18200
C3153       C  0.70025130  0.00636299  0.49572156    -0.10500
C3154       C  0.71236857  0.00288002  0.50409311     0.22100
C3155       C  0.72438201  0.99710953  0.49730440    -0.19800
C3156       C  0.72424240  0.99463538  0.48257179    -0.10700
C3157       C  0.71286534  0.00482242  0.51987536    -0.14800
C3158       C  0.70117007  0.00691170  0.52787097    -0.28700
C3159       C  0.71131280  0.99553931  0.45862296    -0.03000
C3160       C  0.72292413  0.99486653  0.45031864    -0.39500
H3161       H  0.69059574  0.00652940  0.47487991     0.13300
H3162       H  0.69086445  0.01118718  0.50030776     0.12900
H3163       H  0.73383954  0.99428155  0.50345731     0.12300
H3164       H  0.73357351  0.98980366  0.47784180     0.12600
H3165       H  0.72317505  0.00361071  0.52522965     0.15300
H3166       H  0.69061555  0.00749671  0.52302715     0.14100
H3167       H  0.70075701  0.99490502  0.45365539     0.11800
H3168       H  0.73356857  0.99617042  0.45487834     0.13800
C3169       C  0.71106382  0.07339368  0.59198018     0.19900
C3170       C  0.69998837  0.08182896  0.59749225    -0.18200
C3171       C  0.70089581  0.09675262  0.59741043    -0.10500
C3172       C  0.71291905  0.10369799  0.59171247     0.22100
C3173       C  0.72444287  0.09531242  0.58705286    -0.19800
C3174       C  0.72351160  0.08028077  0.58706999    -0.10700
C3175       C  0.71334822  0.11959930  0.59013811    -0.14800
C3176       C  0.70143389  0.12712957  0.58703464    -0.28700
C3177       C  0.70827654  0.05776425  0.59023541    -0.03000
C3178       C  0.71794969  0.04770138  0.58665337    -0.39500
H3179       H  0.69033824  0.07685727  0.60148958     0.13300
H3180       H  0.69203681  0.10284135  0.60161367     0.12900
H3181       H  0.73390171  0.10040338  0.58278053     0.12300
H3182       H  0.73226308  0.07420703  0.58266881     0.12600
H3183       H  0.72362652  0.12504318  0.59065425     0.15300
H3184       H  0.69136036  0.12148960  0.58547465     0.14100
H3185       H  0.69720665  0.05440925  0.59146494     0.11800
H3186       H  0.72924331  0.05025050  0.58593095     0.13800
C3187       C  0.64891313  0.99575507  0.62001420     0.19900
C3188       C  0.65002187  0.98782788  0.63269633    -0.18200
C3189       C  0.63828449  0.98621625  0.64164765    -0.10500
C3190       C  0.62512993  0.99277110  0.63826887     0.22100
C3191       C  0.62386885  0.00036611  0.62537312    -0.19800
C3192       C  0.63563134  0.00192466  0.61634420    -0.10700
C3193       C  0.61270249  0.99228530  0.64809156    -0.14800
C3194       C  0.61413238  0.98983356  0.66219600    -0.28700
C3195       C  0.66202593  0.99754622  0.61131881    -0.03000
C3196       C  0.66217589  0.00217620  0.59771556    -0.39500
H3197       H  0.66006048  0.98284238  0.63572872     0.13300
H3198       H  0.63965073  0.97978709  0.65116224     0.12900
H3199       H  0.61384722  0.00545914  0.62245993     0.12300
H3200       H  0.63429770  0.00827141  0.60677757     0.12600
H3201       H  0.60222949  0.99513098  0.64380689     0.15300
H3202       H  0.62458310  0.98782344  0.66690137     0.14100
H3203       H  0.67212264  0.99451930  0.61632956     0.11800
H3204       H  0.65233963  0.00482974  0.59209784     0.13800
C3205       C  0.70038020  0.82118216  0.47799663     0.19900
C3206       C  0.69906505  0.80993068  0.48784007    -0.18200
C3207       C  0.70085030  0.81242407  0.50251252    -0.10500
C3208       C  0.70415000  0.82625568  0.50760210     0.22100
C3209       C  0.70545626  0.83747081  0.49773201    -0.19800
C3210       C  0.70354267  0.83500943  0.48312124    -0.10700
C3211       C  0.70692687  0.82940020  0.52296466    -0.14800
C3212       C  0.70188639  0.82140696  0.53376414    -0.28700
C3213       C  0.69995714  0.81801402  0.46243847    -0.03000
C3214       C  0.69632150  0.82786343  0.45257772    -0.39500
H3215       H  0.69688829  0.79914655  0.48414290     0.13300
H3216       H  0.70011141  0.80341060  0.50972424     0.12900
H3217       H  0.70814080  0.84817868  0.50132984     0.12300
H3218       H  0.70514542  0.84386756  0.47585483     0.12600
H3219       H  0.71285619  0.83912208  0.52549808     0.15300
H3220       H  0.69528402  0.81206886  0.53161114     0.14100
H3221       H  0.70334030  0.80744517  0.45899408     0.11800
H3222       H  0.69218881  0.83819144  0.45587392     0.13800
C3223       C  0.71337793  0.93509050  0.57477458     0.19900
C3224       C  0.70826948  0.92571551  0.56413576    -0.18200
C3225       C  0.70966957  0.91090124  0.56563774    -0.10500
C3226       C  0.71613667  0.90503057  0.57793033     0.22100
C3227       C  0.72163946  0.91435824  0.58840518    -0.19800
C3228       C  0.72018875  0.92924076  0.58693110    -0.10700
C3229       C  0.71725612  0.88925687  0.58000127    -0.14800
C3230       C  0.70729463  0.88015780  0.57481596    -0.28700
C3231       C  0.71065964  0.95071072  0.57288325    -0.03000
C3232       C  0.71635561  0.96131463  0.58095784    -0.39500
H3233       H  0.70306361  0.92986859  0.55461607     0.13300
H3234       H  0.70573174  0.90408636  0.55710235     0.12900
H3235       H  0.72674583  0.91010211  0.59792804     0.12300
H3236       H  0.72413833  0.93600191  0.59547869     0.12600
H3237       H  0.72607061  0.88511631  0.58642469     0.15300
H3238       H  0.69797243  0.88433488  0.56920702     0.14100
H3239       H  0.70334699  0.95363767  0.56426716     0.11800
H3240       H  0.72399132  0.95903584  0.58943567     0.13800
C3241       C  0.82084440  0.70125495  0.47782864     0.19900
C3242       C  0.81820068  0.71328673  0.48632629    -0.18200
C3243       C  0.81652569  0.71197200  0.50107237    -0.10500
C3244       C  0.81787505  0.69854261  0.50784944     0.22100
C3245       C  0.82024227  0.68642025  0.49926716    -0.19800
C3246       C  0.82171488  0.68772916  0.48441367    -0.10700
C3247       C  0.81723181  0.69682339  0.52374659    -0.14800
C3248       C  0.81841843  0.70791364  0.53290857    -0.28700
C3249       C  0.82326668  0.70347662  0.46231108    -0.03000
C3250       C  0.82064189  0.69352709  0.45222573    -0.39500
H3251       H  0.81737725  0.72380711  0.48151067     0.13300
H3252       H  0.81416239  0.72160066  0.50696242     0.12900
H3253       H  0.82127466  0.67593302  0.50410543     0.12300
H3254       H  0.82397439  0.67822885  0.47822390     0.12600
H3255       H  0.81658275  0.68604150  0.52806326     0.15300
H3256       H  0.81976087  0.71870913  0.52894225     0.14100
H3257       H  0.82684585  0.71404470  0.45899775     0.11800
H3258       H  0.81631733  0.68314230  0.45513401     0.13800
C3259       C  0.78055806  0.76272480  0.58899917     0.19900
C3260       C  0.78268725  0.77683825  0.59389584    -0.18200
C3261       C  0.77159872  0.78700594  0.59310722    -0.10500
C3262       C  0.75814298  0.78325845  0.58723519     0.22100
C3263       C  0.75612033  0.76918289  0.58232530    -0.19800
C3264       C  0.76711283  0.75910743  0.58311103    -0.10700
C3265       C  0.74586941  0.79339374  0.58556225    -0.14800
C3266       C  0.74578601  0.80740917  0.58911223    -0.28700
C3267       C  0.79267911  0.75223909  0.58921741    -0.03000
C3268       C  0.79061732  0.73791633  0.58888784    -0.39500
H3269       H  0.79297258  0.78001228  0.59831280     0.13300
H3270       H  0.77370414  0.79771142  0.59699273     0.12900
H3271       H  0.74597808  0.76596019  0.57760906     0.12300
H3272       H  0.76507264  0.74860950  0.57865314     0.12600
H3273       H  0.73620003  0.78896322  0.58073375     0.15300
H3274       H  0.75512749  0.81249234  0.59384519     0.14100
H3275       H  0.80353759  0.75642367  0.58922390     0.11800
H3276       H  0.77985490  0.73360615  0.58944955     0.13800
C3277       C  0.92438656  0.71551297  0.58446635     0.19900
C3278       C  0.91570895  0.71580111  0.57214271    -0.18200
C3279       C  0.90084921  0.71687245  0.57313239    -0.10500
C3280       C  0.89422799  0.71747928  0.58654458     0.22100
C3281       C  0.90290680  0.71786656  0.59888600    -0.19800
C3282       C  0.91785481  0.71680405  0.59789543    -0.10700
C3283       C  0.87833881  0.71730257  0.58785706    -0.14800
C3284       C  0.86997386  0.71012447  0.57849359    -0.28700
C3285       C  0.93990595  0.71248141  0.58272241    -0.03000
C3286       C  0.95022972  0.71504702  0.59257464    -0.39500
H3287       H  0.92044112  0.71491930  0.56165918     0.13300
H3288       H  0.89456796  0.71707916  0.56335613     0.12900
H3289       H  0.89807588  0.71842449  0.60934089     0.12300
H3290       H  0.92414478  0.71640873  0.60764853     0.12600
H3291       H  0.87353883  0.72231801  0.59711587     0.15300
H3292       H  0.87486466  0.70422119  0.56983074     0.14100
H3293       H  0.94297805  0.70765504  0.57263622     0.11800
H3294       H  0.94780430  0.72052107  0.60248021     0.13800
C3295       C  0.48718375  0.82077248  0.69475965     0.19900
C3296       C  0.49624433  0.80898195  0.69260940    -0.18200
C3297       C  0.51117557  0.81053104  0.69355049    -0.10500
C3298       C  0.51731237  0.82389247  0.69695320     0.29300
C3299       C  0.50824990  0.83565657  0.69905140    -0.19800
C3300       C  0.49338878  0.83417058  0.69787734    -0.10700
C3301       C  0.53292821  0.82580515  0.69962770    -0.14800
C3302       C  0.54326940  0.81809061  0.69330789    -0.28700
C3303       C  0.47137835  0.81858143  0.69511418    -0.03000
C3304       C  0.46189565  0.82902793  0.69206557    -0.39500
H3305       H  0.49174288  0.79850257  0.69042462     0.13300
H3306       H  0.51783152  0.80116531  0.69220025     0.12900
H3307       H  0.51268913  0.84601846  0.70186313     0.12300
H3308       H  0.48679511  0.84341299  0.70005653     0.12600
H3309       H  0.53606746  0.83440326  0.70684853     0.15300
H3310       H  0.54053335  0.81009897  0.68530650     0.14100
H3311       H  0.46745222  0.80812973  0.69837596     0.11800
H3312       H  0.46562946  0.83927296  0.68806593     0.13800
C3313       C  0.63681846  0.82518317  0.65059513     0.19900
C3314       C  0.63448850  0.82728248  0.63589525    -0.18200
C3315       C  0.64600055  0.82820195  0.62645297    -0.10500
C3316       C  0.66020366  0.82684937  0.63147919     0.22100
C3317       C  0.66252982  0.82465698  0.64615596    -0.19800
C3318       C  0.65102111  0.82372232  0.65559100    -0.10700
C3319       C  0.67284511  0.82821411  0.62192136    -0.14800
C3320       C  0.67220884  0.82620869  0.60767783    -0.28700
C3321       C  0.62419505  0.82442003  0.66027463    -0.03000
C3322       C  0.62500396  0.82677987  0.67447305    -0.39500
H3323       H  0.62370382  0.82844971  0.63171479     0.13300
H3324       H  0.64367158  0.83029598  0.61531398     0.12900
H3325       H  0.67331888  0.82356750  0.65034452     0.12300
H3326       H  0.65336614  0.82167358  0.66673564     0.12600
H3327       H  0.68311006  0.83080193  0.62684435     0.15300
H3328       H  0.66224066  0.82301867  0.60257019     0.14100
H3329       H  0.61376145  0.82240640  0.65544341     0.11800
H3330       H  0.63515650  0.82956451  0.67944463     0.13800
C3331       C  0.58059220  0.92779367  0.71400524     0.19900
C3332       C  0.57031388  0.91782664  0.70929372    -0.18200
C3333       C  0.57255200  0.90314716  0.71087249    -0.10500
C3334       C  0.58527701  0.89793837  0.71707858     0.22100
C3335       C  0.59524376  0.90786548  0.72260569    -0.19800
C3336       C  0.59299051  0.92268968  0.72101317    -0.10700
C3337       C  0.58833017  0.88223848  0.71747851    -0.14800
C3338       C  0.58371631  0.87348953  0.70693042    -0.28700
C3339       C  0.57836324  0.94307035  0.70992563    -0.03000
C3340       C  0.58555477  0.95452715  0.71513006    -0.39500
H3341       H  0.56059819  0.92140438  0.70399852     0.13300
H3342       H  0.56432914  0.89588005  0.70703010     0.12900
H3343       H  0.60504912  0.90414440  0.72761054     0.12300
H3344       H  0.60121369  0.93001159  0.72471871     0.12600
H3345       H  0.59488512  0.87796437  0.72611908     0.15300
H3346       H  0.57805951  0.87803546  0.69781811     0.14100
H3347       H  0.57035102  0.94493147  0.70163026     0.11800
H3348       H  0.59323764  0.95339526  0.72381873     0.13800
C3349       C  0.48506199  0.70905900  0.83109929     0.19900
C3350       C  0.49402311  0.71743936  0.83988167    -0.18200
C3351       C  0.50890777  0.71641163  0.83903206    -0.10500
C3352       C  0.51529399  0.70703893  0.82920393     0.22100
C3353       C  0.50635967  0.69853077  0.82049978    -0.19800
C3354       C  0.49141360  0.69956061  0.82134980    -0.10700
C3355       C  0.53115702  0.70551962  0.82816200    -0.14800
C3356       C  0.54039303  0.71582796  0.83236185    -0.28700
C3357       C  0.46927872  0.71096151  0.83238888    -0.03000
C3358       C  0.45922179  0.70234756  0.82650056    -0.39500
H3359       H  0.48948289  0.72478778  0.84754887     0.13300
H3360       H  0.51530684  0.72280607  0.84632156     0.12900
H3361       H  0.51096676  0.69115493  0.81290601     0.12300
H3362       H  0.48498803  0.69302444  0.81422230     0.12600
H3363       H  0.53534842  0.69566953  0.82367405     0.15300
H3364       H  0.53641049  0.72599813  0.83623301     0.14100
H3365       H  0.46573437  0.71997591  0.83878935     0.11800
H3366       H  0.46217528  0.69300076  0.82034392     0.13800
C3367       C  0.59469287  0.78170732  0.75947920     0.19900
C3368       C  0.59774883  0.78406313  0.77402837    -0.18200
C3369       C  0.59727722  0.77278214  0.78394168    -0.10500
C3370       C  0.59363801  0.75877946  0.77953989     0.22100
C3371       C  0.59052283  0.75646576  0.76500527    -0.19800
C3372       C  0.59102483  0.76771346  0.75511460    -0.10700
C3373       C  0.59212672  0.74645567  0.78968073    -0.14800
C3374       C  0.59680095  0.74642132  0.80337177    -0.28700
C3375       C  0.59451614  0.79417589  0.74937909    -0.03000
C3376       C  0.59546109  0.79280793  0.73507032    -0.39500
H3377       H  0.60038877  0.79473104  0.77777974     0.13300
H3378       H  0.59941935  0.77524501  0.79503610     0.12900
H3379       H  0.58747585  0.74589471  0.76127856     0.12300
H3380       H  0.58807998  0.76539728  0.74415902     0.12600
H3381       H  0.58674645  0.73692089  0.78565332     0.15300
H3382       H  0.60252015  0.75556733  0.80771387     0.14100
H3383       H  0.59340154  0.80483534  0.75388760     0.11800
H3384       H  0.59712953  0.78232866  0.73039524     0.13800
C3385       C  0.59193742  0.72536367  0.93443375     0.19900
C3386       C  0.60409779  0.72321693  0.92600354    -0.18200
C3387       C  0.60276454  0.72119441  0.91120207    -0.10500
C3388       C  0.58919417  0.72140963  0.90452755     0.22100
C3389       C  0.57712824  0.72415690  0.91288715    -0.19800
C3390       C  0.57847047  0.72629298  0.92761446    -0.10700
C3391       C  0.58698877  0.71813640  0.88909524    -0.14800
C3392       C  0.59699955  0.71997250  0.87899934    -0.28700
C3393       C  0.59349563  0.72542788  0.95030859    -0.03000
C3394       C  0.58308304  0.72038587  0.95876798    -0.39500
H3395       H  0.61459153  0.72247333  0.93096051     0.13300
H3396       H  0.61229920  0.71890696  0.90516262     0.12900
H3397       H  0.56657370  0.72452666  0.90801241     0.12300
H3398       H  0.56888486  0.72844875  0.93362656     0.12600
H3399       H  0.57637132  0.71456704  0.88581679     0.15300
H3400       H  0.60743547  0.72432046  0.88177812     0.14100
H3401       H  0.60395591  0.72772078  0.95495533     0.11800
H3402       H  0.57304734  0.71678896  0.95406362     0.13800
C3403       C  0.82199665  0.48654006  0.69277704     0.19900
C3404       C  0.83381439  0.49584993  0.69214062    -0.18200
C3405       C  0.83194013  0.51071502  0.69145856    -0.10500
C3406       C  0.81812961  0.51668266  0.69157818     0.22100
C3407       C  0.80628557  0.50737436  0.69186167    -0.19800
C3408       C  0.80815942  0.49246890  0.69235130    -0.10700
C3409       C  0.81584193  0.53239562  0.69338572    -0.14800
C3410       C  0.82524800  0.54249690  0.68917914    -0.28700
C3411       C  0.82463913  0.47096512  0.69526425    -0.03000
C3412       C  0.81518737  0.46038418  0.69232773    -0.39500
H3413       H  0.84459597  0.49161379  0.69258961     0.13300
H3414       H  0.84134976  0.51748757  0.69164602     0.12900
H3415       H  0.79553481  0.51167527  0.69215843     0.12300
H3416       H  0.79877761  0.48571870  0.69311959     0.12600
H3417       H  0.80633034  0.53570830  0.69908596     0.15300
H3418       H  0.83441473  0.53951665  0.68281036     0.14100
H3419       H  0.83502559  0.46807035  0.69972671     0.11800
H3420       H  0.80505539  0.46277108  0.68709769     0.13800
C3421       C  0.81982816  0.65666118  0.63207399     0.19900
C3422       C  0.82617594  0.65824106  0.64567366    -0.18200
C3423       C  0.82597724  0.64707536  0.65567788    -0.10500
C3424       C  0.81927009  0.63393576  0.65242881     0.22100
C3425       C  0.81283386  0.63234524  0.63885939    -0.19800
C3426       C  0.81302395  0.64354878  0.62882275    -0.10700
C3427       C  0.81939849  0.62148708  0.66256912    -0.14800
C3428       C  0.82171766  0.62267591  0.67679632    -0.28700
C3429       C  0.82067199  0.66901835  0.62185405    -0.03000
C3430       C  0.81724524  0.66855831  0.60778749    -0.39500
H3431       H  0.83153926  0.66814497  0.64853689     0.13300
H3432       H  0.83142761  0.64873601  0.66578541     0.12900
H3433       H  0.80761611  0.62236258  0.63599702     0.12300
H3434       H  0.80779197  0.64182920  0.61861894     0.12600
H3435       H  0.81740601  0.61090946  0.65812336     0.15300
H3436       H  0.82305694  0.63315893  0.68161197     0.14100
H3437       H  0.82478904  0.67904561  0.62614046     0.11800
H3438       H  0.81336711  0.65873777  0.60294137     0.13800
C3439       C  0.92450133  0.58516785  0.72731149     0.19900
C3440       C  0.91474511  0.57377339  0.72587590    -0.18200
C3441       C  0.89997959  0.57626182  0.72529333    -0.10500
C3442       C  0.89455935  0.59029191  0.72596914     0.22100
C3443       C  0.90427951  0.60168074  0.72780603    -0.19800
C3444       C  0.91908543  0.59916606  0.72858812    -0.10700
C3445       C  0.87912918  0.59339020  0.72300600    -0.14800
C3446       C  0.86851268  0.58399614  0.72571122    -0.28700
C3447       C  0.94005623  0.58215525  0.72544889    -0.03000
C3448       C  0.95084987  0.59082448  0.72977332    -0.39500
H3449       H  0.91859036  0.56291411  0.72466822     0.13300
H3450       H  0.89292079  0.56722470  0.72347791     0.12900
H3451       H  0.90042820  0.61260043  0.72818209     0.12300
H3452       H  0.92623701  0.60826884  0.72937057     0.12600
H3453       H  0.87652231  0.60349621  0.71786017     0.15300
H3454       H  0.87085049  0.57423715  0.73157587     0.14100
H3455       H  0.94271030  0.57244737  0.71965343     0.11800
H3456       H  0.94868696  0.60021420  0.73621461     0.13800
C3457       C  0.69937558  0.48579939  0.82540918     0.19900
C3458       C  0.70865887  0.49445196  0.83354507    -0.18200
C3459       C  0.70757204  0.50936021  0.83322645    -0.10500
C3460       C  0.69703849  0.51616053  0.82477448     0.22100
C3461       C  0.68786052  0.50752631  0.81640843    -0.19800
C3462       C  0.68895470  0.49250401  0.81673763    -0.10700
C3463       C  0.69590544  0.53215460  0.82398172    -0.14800
C3464       C  0.70137599  0.54088726  0.83414960    -0.28700
C3465       C  0.70155591  0.46997453  0.82600789    -0.03000
C3466       C  0.69209074  0.45996188  0.82152161    -0.39500
H3467       H  0.71693649  0.48964720  0.84014833     0.13300
H3468       H  0.71532760  0.51543042  0.83937771     0.12900
H3469       H  0.67982835  0.51242220  0.80957897     0.12300
H3470       H  0.68181834  0.48627135  0.81001104     0.12600
H3471       H  0.69060090  0.53685216  0.81472495     0.15300
H3472       H  0.70622096  0.53636909  0.84369897     0.14100
H3473       H  0.71152814  0.46634648  0.83085287     0.11800
H3474       H  0.68180955  0.46302897  0.81702715     0.13800
C3475       C  0.65082938  0.63350767  0.82038716     0.19900
C3476       C  0.63596857  0.63167412  0.82195423    -0.18200
C3477       C  0.62662513  0.64345091  0.82159691    -0.10500
C3478       C  0.63195688  0.65745418  0.81973428     0.22100
C3479       C  0.64671597  0.65921339  0.81765667    -0.19800
C3480       C  0.65603004  0.64749890  0.81806272    -0.10700
C3481       C  0.62283567  0.67061273  0.82029640    -0.14800
C3482       C  0.60946183  0.67113845  0.82559116    -0.28700
C3483       C  0.66051707  0.62078801  0.82216601    -0.03000
C3484       C  0.67469956  0.62100142  0.81951602    -0.39500
H3485       H  0.63156792  0.62108099  0.82369358     0.13300
H3486       H  0.61531198  0.64147682  0.82288687     0.12900
H3487       H  0.65117554  0.66981727  0.81614077     0.12300
H3488       H  0.66731117  0.64970423  0.81698655     0.12600
H3489       H  0.62779188  0.68061977  0.81704455     0.15300
H3490       H  0.60422186  0.66148290  0.82928246     0.14100
H3491       H  0.65587189  0.61100427  0.82639467     0.11800
H3492       H  0.67967606  0.63048746  0.81513548     0.13800
C3493       C  0.77705163  0.59020708  0.75993064     0.19900
C3494       C  0.77965279  0.58855123  0.77467187    -0.18200
C3495       C  0.76837751  0.58840640  0.78445480    -0.10500
C3496       C  0.75411030  0.58994573  0.77974547     0.22100
C3497       C  0.75147489  0.59161877  0.76504153    -0.19800
C3498       C  0.76274315  0.59184000  0.75526290    -0.10700
C3499       C  0.74167009  0.58913643  0.78964430    -0.14800
C3500       C  0.74247497  0.59184144  0.80379682    -0.28700
C3501       C  0.78956384  0.58994874  0.74998661    -0.03000
C3502       C  0.78858759  0.59054872  0.73559061    -0.39500
H3503       H  0.79048551  0.58718859  0.77865604     0.13300
H3504       H  0.77089953  0.58671528  0.79563060     0.12900
H3505       H  0.74060924  0.59276212  0.76107846     0.12300
H3506       H  0.76002766  0.59323738  0.74411186     0.12600
H3507       H  0.73130665  0.58647272  0.78498074     0.15300
H3508       H  0.75250802  0.59525965  0.80862823     0.14100
H3509       H  0.80014541  0.58887628  0.75478549     0.11800
H3510       H  0.77827408  0.59136145  0.73029856     0.13800
C3511       C  0.71874524  0.60363183  0.93135411     0.19900
C3512       C  0.70844139  0.61045865  0.92272401    -0.18200
C3513       C  0.70939612  0.61014445  0.90784496    -0.10500
C3514       C  0.72067811  0.60289102  0.90118386     0.22100
C3515       C  0.73161089  0.59703068  0.90977487    -0.19800
C3516       C  0.73062792  0.59728527  0.92473856    -0.10700
C3517       C  0.72080124  0.60067378  0.88540567    -0.14800
C3518       C  0.70860033  0.59860465  0.87785946    -0.28700
C3519       C  0.71550936  0.60178621  0.94680074    -0.03000
C3520       C  0.72473128  0.59714959  0.95697128    -0.39500
H3521       H  0.69925728  0.61556445  0.92749845     0.13300
H3522       H  0.70106985  0.61526800  0.90156867     0.12900
H3523       H  0.74051311  0.59154438  0.90490056     0.12300
H3524       H  0.73875777  0.59183051  0.93096391     0.12600
H3525       H  0.73104080  0.59951937  0.88013761     0.15300
H3526       H  0.69841240  0.59866975  0.88333525     0.14100
H3527       H  0.70446150  0.60363351  0.94982725     0.11800
H3528       H  0.73602443  0.59588033  0.95476061     0.13800
loop_ 
_geom_bond_atom_site_label_1 
_geom_bond_atom_site_label_2 
_geom_bond_distance 
_geom_bond_site_symmetry_2 
_ccdc_geom_bond_type 
O1            C4   1.264       .  A
O1           Cd6   2.457       .  S
C2           O11   1.266       .  A
C2            O7   1.266       .  A
C2         C3500   1.485       .  S
O3            C9   1.268       .  A
O3           Cd6   2.539       .  S
C4           O12   1.268       .  A
C4         C3518   1.479       .  S
C5           O10   1.268       .  A
C5            O8   1.263       .  A
C5         C3484   1.484       .  S
Cd6          O13   2.445       .  S
Cd6          O12   2.514       .  S
Cd6          O11   2.490       .  S
Cd6           O7   2.489       .  S
Cd6          O10   2.534       .  S
Cd6           O8   2.462       .  S
C9           O13   1.262       .  A
C9         C3464   1.480       .  S
O14          C17   1.267       .  A
O14         Cd19   2.515       .  S
C15          O24   1.265       .  A
C15          O20   1.263       .  A
C15        C3446   1.483       .  S
O16          C22   1.265       .  A
O16         Cd19   2.501       .  S
C17          O25   1.264       .  A
C17        C3502   1.485       .  S
C18          O23   1.268       .  A
C18          O21   1.265       .  A
C18        C3428   1.487       .  S
Cd19         O26   2.491       .  S
Cd19         O25   2.479       .  S
Cd19         O24   2.516       .  S
Cd19         O20   2.488       .  S
Cd19         O23   2.518       .  S
Cd19         O21   2.484       .  S
C22          O26   1.264       .  A
C22        C3410   1.484       .  S
O27          C30   1.265       .  A
O27         Cd32   2.481       .  S
C28          O37   1.263       .  A
C28          O33   1.265       .  A
C28        C3392   1.480       .  S
O29          C35   1.263       .  A
O29         Cd32   2.451       .  S
C30          O38   1.267       .  A
C30        C3374   1.485       .  S
C31          O36   1.264       .  A
C31          O34   1.265       .  A
C31        C3482   1.486       .  S
Cd32         O39   2.510       .  S
Cd32         O38   2.500       .  S
Cd32         O37   2.475       .  S
Cd32         O33   2.500       .  S
Cd32         O36   2.502       .  S
Cd32         O34   2.502       .  S
C35          O39   1.268       .  A
C35        C3356   1.478       .  S
O40          C43   1.269       .  A
O40         Cd45   2.530       .  S
C41          O50   1.263       .  A
C41          O46   1.271       .  A
C41        C3338   1.479       .  S
O42          C48   1.268       .  A
O42         Cd45   2.510       .  S
C43          O51   1.263       .  A
C43        C3376   1.485       .  S
C44          O49   1.268       .  A
C44          O47   1.265       .  A
C44        C3302   1.483       .  S
Cd45         O52   2.464       .  S
Cd45         O51   2.461       .  S
Cd45         O50   2.429       .  S
Cd45         O46   2.530       .  S
Cd45         O49   2.506       .  S
Cd45         O47   2.454       .  S
C48          O52   1.265       .  A
C48        C3322   1.482       .  S
O53          C56   1.268       .  A
O53         Cd58   2.523       .  S
C54          O63   1.262       .  A
C54          O59   1.269       .  A
C54        C3284   1.476       .  S
O55          C61   1.268       .  A
O55         Cd58   2.508       .  S
C56          O64   1.265       .  A
C56        C3268   1.483       .  S
C57          O62   1.270       .  A
C57          O60   1.263       .  A
C57        C3248   1.478       .  S
Cd58         O65   2.493       .  S
Cd58         O64   2.459       .  S
Cd58         O63   2.435       .  S
Cd58         O59   2.520       .  S
Cd58         O62   2.526       .  S
Cd58         O60   2.432       .  S
C61          O65   1.267       .  A
C61        C3430   1.490       .  S
O66          C69   1.266       .  A
O66         Cd71   2.518       .  S
C67          O76   1.268       .  A
C67          O72   1.262       .  A
C67        C3230   1.476       .  S
O68          C74   1.264       .  A
O68         Cd71   2.470       .  S
C69          O77   1.264       .  A
C69        C3266   1.487       .  S
C70          O75   1.262       .  A
C70          O73   1.266       .  A
C70        C3320   1.480       .  S
Cd71         O78   2.476       .  S
Cd71         O77   2.459       .  S
Cd71         O76   2.509       .  S
Cd71         O72   2.444       .  S
Cd71         O75   2.465       .  S
Cd71         O73   2.509       .  S
C74          O78   1.266       .  A
C74        C3212   1.477       .  S
O79          C82   1.265       .  A
O79         Cd84   2.442       .  S
C80          O89   1.267       .  A
C80          O85   1.266       .  A
C80        C3196   1.475       .  S
O81          C87   1.263       .  A
O81         Cd84   2.436   1_565  S
C82          O90   1.267       .  A
C82        C3158   1.471       .  S
C83          O88   1.269       .  A
C83          O86   1.262       .  A
C83        C3178   1.484       .  S
Cd84         O91   2.510   1_545  S
Cd84         O90   2.467       .  S
Cd84         O89   2.449       .  S
Cd84         O85   2.466       .  S
Cd84         O88   2.528       .  S
Cd84         O86   2.426       .  S
C87          O91   1.270       .  A
C87        C3232   1.482       .  S
O92          C95   1.269       .  A
O92         Cd97   2.478       .  S
C93         O102   1.267       .  A
C93          O98   1.267       .  A
C93        C3122   1.478       .  S
O94         C100   1.271       .  A
O94         Cd97   2.528       .  S
C95         O103   1.265       .  A
C95        C3194   1.472       .  S
C96         O101   1.271       .  A
C96          O99   1.261       .  A
C96        C3140   1.478       .  S
Cd97        O104   2.428       .  S
Cd97        O103   2.430       .  S
Cd97        O102   2.434       .  S
Cd97         O98   2.483       .  S
Cd97        O101   2.537   1_565  S
Cd97         O99   2.427   1_565  S
C100        O104   1.264       .  A
C100       C3340   1.487       .  S
O105        C108   1.266       .  A
O105       Cd110   2.501       .  S
C106        O115   1.264       .  A
C106        O111   1.268       .  A
C106       C3104   1.479       .  S
O107        C113   1.266       .  A
O107       Cd110   2.524       .  S
C108        O116   1.266       .  A
C108       C3086   1.487       .  S
C109        O114   1.267       .  A
C109        O112   1.264       .  A
C109       C3412   1.485       .  S
Cd110       O117   2.488       .  S
Cd110       O116   2.495       .  S
Cd110       O115   2.449       .  S
Cd110       O111   2.515       .  S
Cd110       O114   2.510       .  S
Cd110       O112   2.474       .  S
C113        O117   1.264       .  A
C113       C3070   1.487       .  S
O118        C121   1.271       .  A
O118       Cd123   2.521       .  S
C119        O128   1.262       .  A
C119        O124   1.271       .  A
C119       C3050   1.478       .  S
O120        C126   1.269       .  A
O120       Cd123   2.503       .  S
C121        O129   1.264       .  A
C121       C3088   1.481       .  S
C122        O127   1.270       .  A
C122        O125   1.265       .  A
C122       C3034   1.480       .  S
Cd123       O130   2.453       .  S
Cd123       O129   2.437       .  S
Cd123       O128   2.420       .  S
Cd123       O124   2.533       .  S
Cd123       O127   2.501       .  S
Cd123       O125   2.453       .  S
C126        O130   1.266       .  A
C126       C3466   1.485       .  S
O131        C134   1.263       .  A
O131       Cd136   2.444       .  S
C132        O141   1.266       .  A
C132        O137   1.264       .  A
C132       C2996   1.480       .  S
O133        C139   1.267       .  A
O133       Cd136   2.519       .  S
C134        O142   1.266       .  A
C134       C3014   1.473       .  S
C135        O140   1.265       .  A
C135        O138   1.265       .  A
C135       C3032   1.483       .  S
Cd136       O143   2.459       .  S
Cd136       O142   2.499       .  S
Cd136       O141   2.486       .  S
Cd136       O137   2.477       .  S
Cd136       O140   2.490       .  S
Cd136       O138   2.491       .  S
C139        O143   1.263       .  A
C139       C2980   1.480       .  S
O144        C147   1.265       .  A
O144       Cd149   2.494       .  S
C145        O154   1.265       .  A
C145        O150   1.263       .  A
C145       C2960   1.478       .  S
O146        C152   1.266       .  A
O146       Cd149   2.491       .  S
C147        O155   1.265       .  A
C147       C2942   1.487       .  S
C148        O153   1.264       .  A
C148        O151   1.265       .  A
C148       C3068   1.487       .  S
Cd149       O156   2.476       .  S
Cd149       O155   2.503       .  S
Cd149       O154   2.505       .  S
Cd149       O150   2.470       .  S
Cd149       O153   2.500       .  S
Cd149       O151   2.505       .  S
C152        O156   1.265       .  A
C152       C2924   1.479       .  S
O157        C160   1.268       .  A
O157       Cd162   2.489       .  S
C158        O167   1.265       .  A
C158        O163   1.266       .  A
C158       C3142   1.481       .  S
O159        C165   1.268       .  A
O159       Cd162   2.513       .  S
C160        O168   1.265       .  A
C160       C2998   1.476       .  S
C161        O166   1.270       .  A
C161        O164   1.265       .  A
C161       C2908   1.487       .  S
Cd162       O169   2.466       .  S
Cd162       O168   2.452       .  S
Cd162       O167   2.465       .  S
Cd162       O163   2.499       .  S
Cd162       O166   2.522       .  S
Cd162       O164   2.468       .  S
C165        O169   1.263       .  A
C165       C2890   1.485       .  S
O170        C173   1.268       .  A
O170       Cd175   2.537       .  S
C171        O180   1.262       .  A
C171        O176   1.270       .  A
C171       C3176   1.479       .  S
O172        C178   1.266       .  A
O172       Cd175   2.477       .  S
C173        O181   1.264       .  A
C173       C2944   1.487       .  S
C174        O179   1.266       .  A
C174        O177   1.265       .  A
C174       C2870   1.484       .  S
Cd175       O182   2.513       .  S
Cd175       O181   2.471       .  S
Cd175       O180   2.440       .  S
Cd175       O176   2.529       .  S
Cd175       O179   2.507       .  S
Cd175       O177   2.472       .  S
C178        O182   1.268       .  A
C178       C2906   1.486       .  S
O183        C186   1.265       .  A
O183       Cd188   2.467       .  S
C184        O193   1.267       .  A
C184        O189   1.266       .  A
C184       C2816   1.469       .  S
O185        C191   1.269       .  A
O185       Cd188   2.515   1_455  S
C186        O194   1.266       .  A
C186       C2852   1.473       .  S
C187        O192   1.263       .  A
C187        O190   1.268       .  A
C187       C2962   1.481       .  S
Cd188       O195   2.432   1_655  S
Cd188       O194   2.447       .  S
Cd188       O193   2.444       .  S
Cd188       O189   2.445       .  S
Cd188       O192   2.441       .  S
Cd188       O190   2.507       .  S
C191        O195   1.264       .  A
C191       C2834   1.485       .  S
O196        C199   1.267   1_655  A
O196       Cd201   2.496       .  S
C197        O206   1.267       .  A
C197        O202   1.270       .  A
C197       C2854   1.472       .  S
O198        C204   1.268       .  A
O198       Cd201   2.506   1_455  S
C199        O207   1.264       .  A
C199       C2780   1.478       .  S
C200        O205   1.270       .  A
C200        O203   1.262       .  A
C200       C3106   1.485       .  S
Cd201       O208   2.441   1_655  S
Cd201       O207   2.439   1_655  S
Cd201       O206   2.443       .  S
Cd201       O202   2.450       .  S
Cd201       O205   2.530       .  S
Cd201       O203   2.420       .  S
C204        O208   1.263       .  A
C204       C2798   1.480       .  S
O209        C212   1.266       .  A
O209       Cd214   2.499       .  S
C210        O219   1.265       .  A
C210        O215   1.270       .  A
C210       C2836   1.480       .  S
O211        C217   1.268       .  A
O211       Cd214   2.515       .  S
C212        O220   1.264       .  A
C212       C2744   1.483       .  S
C213        O218   1.269       .  A
C213        O216   1.262       .  A
C213       C2726   1.481       .  S
Cd214       O221   2.483       .  S
Cd214       O220   2.475       .  S
Cd214       O219   2.444       .  S
Cd214       O215   2.519       .  S
Cd214       O218   2.543       .  S
Cd214       O216   2.440       .  S
C217        O221   1.265       .  A
C217       C2764   1.488       .  S
O222        C225   1.267       .  A
O222       Cd227   2.511       .  S
C223        O232   1.264       .  A
C223        O228   1.261       .  A
C223       C2710   1.478       .  S
O224        C230   1.266       .  A
O224       Cd227   2.506       .  S
C225        O233   1.263       .  A
C225       C2746   1.479       .  S
C226        O231   1.266       .  A
C226        O229   1.268       .  A
C226       C2692   1.486       .  S
Cd227       O234   2.460       .  S
Cd227       O233   2.460       .  S
Cd227       O232   2.512       .  S
Cd227       O228   2.473       .  S
Cd227       O231   2.484       .  S
Cd227       O229   2.502       .  S
C230        O234   1.263       .  A
C230       C2674   1.481       .  S
O235        C238   1.268       .  A
O235       Cd240   2.495       .  S
C236        O245   1.263       .  A
C236        O241   1.269       .  A
C236       C2654   1.477       .  S
O237        C243   1.270       .  A
O237       Cd240   2.530       .  S
C238        O246   1.267       .  A
C238       C2636   1.486       .  S
C239        O244   1.270       .  A
C239        O242   1.263       .  A
C239       C2888   1.480       .  S
Cd240       O247   2.461       .  S
Cd240       O246   2.478       .  S
Cd240       O245   2.438       .  S
Cd240       O241   2.519       .  S
Cd240       O244   2.523       .  S
Cd240       O242   2.446       .  S
C243        O247   1.264       .  A
C243       C2690   1.486       .  S
O248        C251   1.264       .  A
O248       Cd253   2.479       .  S
C249        O258   1.269       .  A
C249        O254   1.262       .  A
C249       C2618   1.476       .  S
O250        C256   1.266       .  A
O250       Cd253   2.501       .  S
C251        O259   1.267       .  A
C251       C2638   1.483       .  S
C252        O257   1.267       .  A
C252        O255   1.268       .  A
C252       C2600   1.483       .  S
Cd253       O260   2.473       .  S
Cd253       O259   2.506       .  S
Cd253       O258   2.524       .  S
Cd253       O254   2.432       .  S
Cd253       O257   2.482       .  S
Cd253       O255   2.485       .  S
C256        O260   1.264       .  A
C256       C2978   1.483       .  S
O261        C264   1.267       .  A
O261       Cd266   2.514       .  S
C262        O271   1.266       .  A
C262        O267   1.264       .  A
C262       C2800   1.481       .  S
O263        C269   1.266       .  A
O263       Cd266   2.505       .  S
C264        O272   1.264       .  A
C264       C2582   1.483       .  S
C265        O270   1.264       .  A
C265        O268   1.266       .  A
C265       C2762   1.485       .  S
Cd266       O273   2.468       .  S
Cd266       O272   2.472       .  S
Cd266       O271   2.496       .  S
Cd266       O267   2.476       .  S
Cd266       O270   2.487       .  S
Cd266       O268   2.520       .  S
C269        O273   1.264       .  A
C269       C2564   1.483       .  S
O274        C277   1.262       .  A
O274       Cd279   2.472       .  S
C275        O284   1.267       .  A
C275        O280   1.264       .  A
C275       C2584   1.484       .  S
O276        C282   1.266       .  A
O276       Cd279   2.478       .  S
C277        O285   1.265       .  A
C277       C2546   1.477       .  S
C278        O283   1.266       .  A
C278        O281   1.263       .  A
C278       C2602   1.482       .  S
Cd279       O286   2.471       .  S
Cd279       O285   2.489       .  S
Cd279       O284   2.500       .  S
Cd279       O280   2.479       .  S
Cd279       O283   2.518       .  S
Cd279       O281   2.468       .  S
C282        O286   1.265       .  A
C282       C2528   1.477       .  S
O287        C290   1.266       .  A
O287       Cd292   2.455       .  S
C288        O297   1.265       .  A
C288        O293   1.266       .  A
C288       C2510   1.471       .  S
O289        C295   1.266       .  A
O289       Cd292   2.508       .  S
C290        O298   1.267       .  A
C290       C2474   1.471       .  S
C291        O296   1.270       .  A
C291        O294   1.264       .  A
C291       C2492   1.482       .  S
Cd292       O299   2.458       .  S
Cd292       O298   2.441       .  S
Cd292       O297   2.421       .  S
Cd292       O293   2.475       .  S
Cd292       O296   2.509   1_545  S
Cd292       O294   2.436   1_545  S
C295        O299   1.263       .  A
C295       C2708   1.482       .  S
O300        C303   1.269       .  A
O300       Cd305   2.480       .  S
C301        O310   1.263       .  A
C301        O306   1.268       .  A
C301       C2512   1.468       .  S
O302        C308   1.269       .  A
O302       Cd305   2.505       .  S
C303        O311   1.265       .  A
C303       C3124   1.471       .  S
C304        O309   1.269       .  A
C304        O307   1.264       .  A
C304       C2656   1.484       .  S
Cd305       O312   2.435       .  S
Cd305       O311   2.427       .  S
Cd305       O310   2.432       .  S
Cd305       O306   2.473       .  S
Cd305       O309   2.517   1_565  S
Cd305       O307   2.433   1_565  S
C308        O312   1.265       .  A
C308       C2458   1.481       .  S
O313        C316   1.266       .  A
O313       Cd318   2.464       .  S
C314        O323   1.266       .  A
C314        O319   1.265       .  A
C314       C2402   1.475       .  S
O315        C321   1.268       .  A
O315       Cd318   2.520       .  S
C316        O324   1.267       .  A
C316       C2438   1.475       .  S
C317        O322   1.264       .  A
C317        O320   1.263       .  A
C317       C2420   1.481       .  S
Cd318       O325   2.442       .  S
Cd318       O324   2.454       .  S
Cd318       O323   2.460       .  S
Cd318       O319   2.469       .  S
Cd318       O322   2.502   1_655  S
Cd318       O320   2.484   1_655  S
C321        O325   1.263       .  A
C321       C3286   1.483       .  S
O326        C329   1.270       .  A
O326       Cd331   2.484       .  S
C327        O336   1.265       .  A
C327        O332   1.269       .  A
C327       C2782   1.474   1_655  S
O328        C334   1.270       .  A
O328       Cd331   2.528   1_455  S
C329        O337   1.264       .  A
C329       C2440   1.471       .  S
C330        O335   1.270       .  A
C330        O333   1.265       .  A
C330       C3448   1.486       .  S
Cd331       O338   2.438   1_655  S
Cd331       O337   2.427       .  S
Cd331       O336   2.438       .  S
Cd331       O332   2.482       .  S
Cd331       O335   2.512       .  S
Cd331       O333   2.453       .  S
C334        O338   1.264       .  A
C334       C2384   1.487       .  S
O339        C342   1.266       .  A
O339       Cd344   2.487       .  S
C340        O349   1.264       .  A
C340        O345   1.266       .  A
C340       C2366   1.482       .  S
O341        C347   1.266       .  A
O341       Cd344   2.500       .  S
C342        O350   1.266       .  A
C342       C2348   1.482       .  S
C343        O348   1.265       .  A
C343        O346   1.267       .  A
C343       C3358   1.481       .  S
Cd344       O351   2.468       .  S
Cd344       O350   2.474       .  S
Cd344       O349   2.457       .  S
Cd344       O345   2.504       .  S
Cd344       O348   2.452       .  S
Cd344       O346   2.494       .  S
C347        O351   1.263       .  A
C347       C2330   1.480       .  S
O352        C355   1.263       .  A
O352       Cd357   2.458       .  S
C353        O362   1.264       .  A
C353        O358   1.266       .  A
C353       C2350   1.479       .  S
O354        C360   1.265       .  A
O354       Cd357   2.486       .  S
C355        O363   1.266       .  A
C355       C2456   1.476       .  S
C356        O361   1.265       .  A
C356        O359   1.264       .  A
C356       C3304   1.480       .  S
Cd357       O364   2.493       .  S
Cd357       O363   2.506       .  S
Cd357       O362   2.464       .  S
Cd357       O358   2.495       .  S
Cd357       O361   2.494       .  S
Cd357       O359   2.480       .  S
C360        O364   1.266       .  A
C360       C2314   1.483       .  S
O365        C368   1.269       .  A
O365       Cd370   2.495       .  S
C366        O375   1.262       .  A
C366        O371   1.269       .  A
C366       C2494   1.478       .  S
O367        C373   1.270       .  A
O367       Cd370   2.506       .  S
C368        O376   1.267       .  A
C368       C2294   1.488       .  S
C369        O374   1.270       .  A
C369        O372   1.262       .  A
C369       C2276   1.476       .  S
Cd370       O377   2.453       .  S
Cd370       O376   2.485       .  S
Cd370       O375   2.441       .  S
Cd370       O371   2.517       .  S
Cd370       O374   2.521       .  S
Cd370       O372   2.426       .  S
C373        O377   1.265       .  A
C373       C2312   1.481       .  S
O378        C381   1.266       .  A
O378       Cd383   2.498       .  S
C379        O388   1.264       .  A
C379        O384   1.269       .  A
C379       C2258   1.477       .  S
O380        C386   1.265       .  A
O380       Cd383   2.492       .  S
C381        O389   1.265       .  A
C381       C2240   1.484       .  S
C382        O387   1.263       .  A
C382        O385   1.266       .  A
C382       C2332   1.482       .  S
Cd383       O390   2.458       .  S
Cd383       O389   2.480       .  S
Cd383       O388   2.439       .  S
Cd383       O384   2.509       .  S
Cd383       O387   2.482       .  S
Cd383       O385   2.498       .  S
C386        O390   1.264       .  A
C386       C2530   1.477       .  S
O391        C394   1.267       .  A
O391       Cd396   2.515       .  S
C392        O401   1.266       .  A
C392        O397   1.263       .  A
C392       C2422   1.481       .  S
O393        C399   1.264       .  A
O393       Cd396   2.452       .  S
C394        O402   1.265       .  A
C394       C2296   1.485       .  S
C395        O400   1.267       .  A
C395        O398   1.265       .  A
C395       C2222   1.488       .  S
Cd396       O403   2.518       .  S
Cd396       O402   2.481       .  S
Cd396       O401   2.507       .  S
Cd396       O397   2.466       .  S
Cd396       O400   2.509       .  S
Cd396       O398   2.485       .  S
C399        O403   1.269       .  A
C399       C2204   1.481       .  S
O404        C407   1.269       .  A
O404       Cd409   2.516       .  S
C405        O414   1.266       .  A
C405        O410   1.268       .  A
C405       C2386   1.485       .  S
O406        C412   1.270       .  A
O406       Cd409   2.528       .  S
C407        O415   1.265       .  A
C407       C2242   1.483       .  S
C408        O413   1.270       .  A
C408        O411   1.262       .  A
C408       C2566   1.481       .  S
Cd409       O416   2.453       .  S
Cd409       O415   2.463       .  S
Cd409       O414   2.462       .  S
Cd409       O410   2.507       .  S
Cd409       O413   2.538       .  S
Cd409       O411   2.441       .  S
C412        O416   1.265       .  A
C412       C2224   1.485       .  S
O417        C420   1.270       .  A
O417       Cd422   2.480       .  S
C418        O427   1.266       .  A
C418        O423   1.270       .  A
C418       C2152   1.473       .  S
O419        C425   1.272       .  A
O419       Cd422   2.518       .  S
C420        O428   1.264       .  A
C420       C2188   1.469       .  S
C421        O426   1.270       .  A
C421        O424   1.265       .  A
C421       C2168   1.482       .  S
Cd422       O429   2.393       .  S
Cd422       O428   2.420       .  S
Cd422       O427   2.432       .  S
Cd422       O423   2.477       .  S
Cd422       O426   2.515   1_556  S
Cd422       O424   2.421   1_556  S
C425        O429   1.265       .  A
C425       C3016   1.482       .  S
O430        C433   1.264       .  A
O430       Cd435   2.472       .  S
C431        O440   1.269       .  A
C431        O436   1.266       .  A
C431       C2186   1.473       .  S
O432        C438   1.269       .  A
O432       Cd435   2.528       .  S
C433        O441   1.264       .  A
C433       C2114   1.473       .  S
C434        O439   1.268       .  A
C434        O437   1.263       .  A
C434       C2132   1.484       .  S
Cd435       O442   2.443       .  S
Cd435       O441   2.451       .  S
Cd435       O440   2.458       .  S
Cd435       O436   2.445       .  S
Cd435       O439   2.521   1_556  S
Cd435       O437   2.462   1_556  S
C438        O442   1.263       .  A
C438       C3052   1.486       .  S
O443        C446   1.268       .  A
O443       Cd448   2.500       .  S
C444        O453   1.263       .  A
C444        O449   1.266       .  A
C444       C2170   1.484       .  S
O445        C451   1.269       .  A
O445       Cd448   2.504       .  S
C446        O454   1.265       .  A
C446       C2078   1.481       .  S
C447        O452   1.265       .  A
C447        O450   1.265       .  A
C447       C2096   1.481       .  S
Cd448       O455   2.448       .  S
Cd448       O454   2.466       .  S
Cd448       O453   2.448       .  S
Cd448       O449   2.521       .  S
Cd448       O452   2.490       .  S
Cd448       O450   2.482       .  S
C451        O455   1.264       .  A
C451       C2060   1.478       .  S
O456        C459   1.268       .  A
O456       Cd461   2.495       .  S
C457        O466   1.266       .  A
C457        O462   1.266       .  A
C457       C2080   1.480       .  S
O458        C464   1.268       .  A
O458       Cd461   2.524       .  S
C459        O467   1.264       .  A
C459       C2042   1.474       .  S
C460        O465   1.268       .  A
C460        O463   1.266       .  A
C460       C2024   1.484       .  S
Cd461       O468   2.443       .  S
Cd461       O467   2.444       .  S
Cd461       O466   2.471       .  S
Cd461       O462   2.484       .  S
Cd461       O465   2.497       .  S
Cd461       O463   2.463       .  S
C464        O468   1.262       .  A
C464       C2006   1.478       .  S
O469        C472   1.264       .  A
O469       Cd474   2.491       .  S
C470        O479   1.265       .  A
C470        O475   1.265       .  A
C470       C1988   1.481       .  S
O471        C477   1.265       .  A
O471       Cd474   2.501       .  S
C472        O480   1.264       .  A
C472       C2134   1.482       .  S
C473        O478   1.266       .  A
C473        O476   1.265       .  A
C473       C2098   1.480       .  S
Cd474       O481   2.449       .  S
Cd474       O480   2.489       .  S
Cd474       O479   2.476       .  S
Cd474       O475   2.490       .  S
Cd474       O478   2.479       .  S
Cd474       O476   2.481       .  S
C477        O481   1.264       .  A
C477       C1970   1.479       .  S
O482        C485   1.266       .  A
O482       Cd487   2.512       .  S
C483        O492   1.267       .  A
C483        O488   1.263       .  A
C483       C1952   1.478       .  S
O484        C490   1.263       .  A
O484       Cd487   2.470       .  S
C485        O493   1.263       .  A
C485       C1990   1.478       .  S
C486        O491   1.264       .  A
C486        O489   1.267       .  A
C486       C1934   1.481       .  S
Cd487       O494   2.475       .  S
Cd487       O493   2.459       .  S
Cd487       O492   2.486       .  S
Cd487       O488   2.468       .  S
Cd487       O491   2.471       .  S
Cd487       O489   2.502       .  S
C490        O494   1.265       .  A
C490       C1918   1.475       .  S
O495        C498   1.270       .  A
O495       Cd500   2.513       .  S
C496        O505   1.264       .  A
C496        O501   1.270       .  A
C496       C1898   1.478       .  S
O497        C503   1.270       .  A
O497       Cd500   2.516       .  S
C498        O506   1.264       .  A
C498       C1882   1.479       .  S
C499        O504   1.270       .  A
C499        O502   1.265       .  A
C499       C2026   1.481       .  S
Cd500       O507   2.440       .  S
Cd500       O506   2.442       .  S
Cd500       O505   2.441       .  S
Cd500       O501   2.515       .  S
Cd500       O504   2.513       .  S
Cd500       O502   2.446       .  S
C503        O507   1.264       .  A
C503       C2872   1.478       .  S
O508        C511   1.268       .  A
O508       Cd513   2.501       .  S
C509        O518   1.265       .  A
C509        O514   1.264       .  A
C509       C1880   1.480       .  S
O510        C516   1.266       .  A
O510       Cd513   2.505       .  S
C511        O519   1.264       .  A
C511       C1862   1.476       .  S
C512        O517   1.266       .  A
C512        O515   1.263       .  A
C512       C1936   1.479       .  S
Cd513       O520   2.463       .  S
Cd513       O519   2.443       .  S
Cd513       O518   2.490       .  S
Cd513       O514   2.483       .  S
Cd513       O517   2.505       .  S
Cd513       O515   2.461       .  S
C516        O520   1.264       .  A
C516       C2926   1.481       .  S
O521        C524   1.270       .  A
O521       Cd526   2.471   1_556  S
C522        O531   1.265       .  A
C522        O527   1.271       .  A
C522       C1808   1.470       .  S
O523        C529   1.271       .  A
O523       Cd526   2.506       .  S
C524        O532   1.264       .  A
C524       C1844   1.469       .  S
C525        O530   1.271       .  A
C525        O528   1.261       .  A
C525       C3394   1.473       .  S
Cd526       O533   2.411       .  S
Cd526       O532   2.423   1_554  S
Cd526       O531   2.412       .  S
Cd526       O527   2.477       .  S
Cd526       O530   2.519   1_554  S
Cd526       O528   2.413   1_554  S
C529        O533   1.265       .  A
C529       C1826   1.481       .  S
O534        C537   1.267       .  A
O534       Cd539   2.467       .  S
C535        O544   1.265       .  A
C535        O540   1.267       .  A
C535       C2116   1.471       .  S
O536        C542   1.263       .  A
O536       Cd539   2.430       .  S
C537        O545   1.267       .  A
C537       C1846   1.472       .  S
C538        O543   1.269       .  A
C538        O541   1.263       .  A
C538       C1790   1.484       .  S
Cd539       O546   2.521       .  S
Cd539       O545   2.421       .  S
Cd539       O544   2.450       .  S
Cd539       O540   2.459       .  S
Cd539       O543   2.523   1_556  S
Cd539       O541   2.428   1_556  S
C542        O546   1.270       .  A
C542       C3520   1.483       .  S
O547        C550   1.264       .  A
O547       Cd552   2.449       .  S
C548        O557   1.266       .  A
C548        O553   1.263       .  A
C548       C1772   1.472       .  S
O549        C555   1.265       .  A
O549       Cd552   2.495       .  S
C550        O558   1.267   1_565  A
C550       C1736   1.468       .  S
C551        O556   1.266       .  A
C551        O554   1.263       .  A
C551       C2044   1.478       .  S
Cd552       O559   2.445       .  S
Cd552       O558   2.448   1_565  S
Cd552       O557   2.446       .  S
Cd552       O553   2.465       .  S
Cd552       O556   2.499   1_565  S
Cd552       O554   2.440   1_565  S
C555        O559   1.263       .  A
C555       C1754   1.477       .  S
O560        C563   1.269       .  A
O560       Cd565   2.464       .  S
C561        O570   1.266       .  A
C561        O566   1.269       .  A
C561       C3160   1.471       .  S
O562        C568   1.271       .  A
O562       Cd565   2.510       .  S
C563        O571   1.265       .  A
C563       C1774   1.467       .  S
C564        O569   1.272       .  A
C564        O567   1.264       .  A
C564       C1900   1.484       .  S
Cd565       O572   2.434       .  S
Cd565       O571   2.420       .  S
Cd565       O570   2.436       .  S
Cd565       O566   2.456       .  S
Cd565       O569   2.518   1_565  S
Cd565       O567   2.409   1_565  S
C568        O572   1.265       .  A
C568       C1718   1.482       .  S
O573        C576   1.266       .  A
O573       Cd578   2.494       .  S
C574        O583   1.267       .  A
C574        O579   1.262       .  A
C574       C1720   1.479       .  S
O575        C581   1.263       .  A
O575       Cd578   2.474       .  S
C576        O584   1.264       .  A
C576       C1700   1.479       .  S
C577        O582   1.266       .  A
C577        O580   1.264       .  A
C577       C3214   1.474       .  S
Cd578       O585   2.497       .  S
Cd578       O584   2.471       .  S
Cd578       O583   2.502       .  S
Cd578       O579   2.462       .  S
Cd578       O582   2.479       .  S
Cd578       O580   2.457       .  S
C581        O585   1.266       .  A
C581       C1684   1.479       .  S
O586        C589   1.264       .  A
O586       Cd591   2.482       .  S
C587        O596   1.266       .  A
C587        O592   1.262       .  A
C587       C1664   1.473       .  S
O588        C594   1.265       .  A
O588       Cd591   2.476       .  S
C589        O597   1.265       .  A
C589       C1702   1.479       .  S
C590        O595   1.262       .  A
C590        O593   1.266       .  A
C590       C1646   1.478       .  S
Cd591       O598   2.469       .  S
Cd591       O597   2.480       .  S
Cd591       O596   2.511       .  S
Cd591       O592   2.440       .  S
Cd591       O595   2.463       .  S
Cd591       O593   2.501       .  S
C594        O598   1.267       .  A
C594       C3250   1.479       .  S
O599        C602   1.267       .  A
O599       Cd604   2.475       .  S
C600        O609   1.263       .  A
C600        O605   1.267       .  A
C600       C1756   1.473       .  S
O601        C607   1.270       .  A
O601       Cd604   2.530       .  S
C602        O610   1.268       .  A
C602       C1630   1.479       .  S
C603        O608   1.268       .  A
C603        O606   1.263       .  A
C603       C1682   1.479       .  S
Cd604       O611   2.428       .  S
Cd604       O610   2.453       .  S
Cd604       O609   2.443       .  S
Cd604       O605   2.492       .  S
Cd604       O608   2.508       .  S
Cd604       O606   2.457       .  S
C607        O611   1.262       .  A
C607       C1610   1.478       .  S
O612        C615   1.268       .  A
O612       Cd617   2.502       .  S
C613        O622   1.270       .  A
C613        O618   1.263       .  A
C613       C1592   1.476       .  S
O614        C620   1.268       .  A
O614       Cd617   2.486       .  S
C615        O623   1.265       .  A
C615       C1574   1.486       .  S
C616        O621   1.265       .  A
C616        O619   1.266       .  A
C616       C1916   1.477       .  S
Cd617       O624   2.457       .  S
Cd617       O623   2.476       .  S
Cd617       O622   2.522       .  S
Cd617       O618   2.427       .  S
Cd617       O621   2.450       .  S
Cd617       O619   2.488       .  S
C620        O624   1.265       .  A
C620       C1648   1.478       .  S
O625        C628   1.270       .  A
O625       Cd630   2.521       .  S
C626        O635   1.265       .  A
C626        O631   1.270       .  A
C626       C1628   1.476       .  S
O627        C633   1.269       .  A
O627       Cd630   2.511       .  S
C628        O636   1.263       .  A
C628       C1828   1.475       .  S
C629        O634   1.269       .  A
C629        O632   1.265       .  A
C629       C1558   1.481       .  S
Cd630       O637   2.436       .  S
Cd630       O636   2.422       .  S
Cd630       O635   2.439       .  S
Cd630       O631   2.494       .  S
Cd630       O634   2.499       .  S
Cd630       O632   2.462       .  S
C633        O637   1.263       .  A
C633       C1538   1.476       .  S
O638        C641   1.270       .  A
O638       Cd643   2.517       .  S
C639        O648   1.263       .  A
C639        O644   1.271       .  A
C639       C1792   1.478       .  S
O640        C646   1.270       .  A
O640       Cd643   2.514       .  S
C641        O649   1.264       .  A
C641       C1576   1.484       .  S
C642        O647   1.268       .  A
C642        O645   1.267       .  A
C642       C1556   1.486       .  S
Cd643       O650   2.430       .  S
Cd643       O649   2.459       .  S
Cd643       O648   2.428       .  S
Cd643       O644   2.526       .  S
Cd643       O647   2.496       .  S
Cd643       O645   2.481       .  S
C646        O650   1.263       .  A
C646       C1972   1.476       .  S
O651        C654   1.267       .  A
O651       Cd656   2.458       .  S
C652        O661   1.263       .  A
C652        O657   1.267       .  A
C652       C1484   1.471       .  S
O653        C659   1.268       .  A
O653       Cd656   2.502       .  S
C654        O662   1.268       .  A
C654       C1520   1.473       .  S
C655        O660   1.269       .  A
C655        O658   1.264       .  A
C655       C2260   1.483       .  S
Cd656       O663   2.434       .  S
Cd656       O662   2.435       .  S
Cd656       O661   2.450       .  S
Cd656       O657   2.465       .  S
Cd656       O660   2.516   1_554  S
Cd656       O658   2.434   1_554  S
C659        O663   1.263       .  A
C659       C1502   1.477       .  S
O664        C667   1.269       .  A
O664       Cd669   2.479       .  S
C665        O674   1.268       .  A
C665        O670   1.268       .  A
C665       C1810   1.474       .  S
O666        C672   1.271       .  A
O666       Cd669   2.523   1_556  S
C667        O675   1.263       .  A
C667       C1522   1.468       .  S
C668        O673   1.264       .  A
C668        O671   1.269       .  A
C668       C1466   1.478       .  S
Cd669       O676   2.417   1_554  S
Cd669       O675   2.420       .  S
Cd669       O674   2.444       .  S
Cd669       O670   2.460       .  S
Cd669       O673   2.432       .  S
Cd669       O671   2.504       .  S
C672        O676   1.263       .  A
C672       C2368   1.484       .  S
O677        C680   1.266       .  A
O677       Cd682   2.443       .  S
C678        O687   1.265       .  A
C678        O683   1.263   1_455  A
C678       C1412   1.469       .  S
O679        C685   1.266       .  A
O679       Cd682   2.519   1_655  S
C680        O688   1.264   1_455  A
C680       C1448   1.467   1_455  S
C681        O686   1.265       .  A
C681        O684   1.269       .  A
C681       C1430   1.482       .  S
Cd682       O689   2.447   1_455  S
Cd682       O688   2.456   1_455  S
Cd682       O687   2.443       .  S
Cd682       O683   2.457   1_455  S
Cd682       O686   2.430       .  S
Cd682       O684   2.504       .  S
C685        O689   1.262       .  A
C685       C1594   1.482       .  S
O690        C693   1.267       .  A
O690       Cd695   2.467       .  S
C691        O700   1.264   1_455  A
C691        O696   1.265       .  A
C691       C1450   1.470       .  S
O692        C698   1.264       .  A
O692       Cd695   2.411       .  S
C693        O701   1.266       .  A
C693       C2404   1.475       .  S
C694        O699   1.262       .  A
C694        O697   1.267       .  A
C694       C1394   1.481       .  S
Cd695       O702   2.521       .  S
Cd695       O701   2.454       .  S
Cd695       O700   2.439       .  S
Cd695       O696   2.473   1_655  S
Cd695       O699   2.444   1_655  S
Cd695       O697   2.517   1_655  S
C698        O702   1.270       .  A
C698       C1666   1.483       .  S
O703        C706   1.264       .  A
O703       Cd708   2.502       .  S
C704        O713   1.264       .  A
C704        O709   1.267       .  A
C704       C1358   1.482       .  S
O705        C711   1.270       .  A
O705       Cd708   2.513       .  S
C706        O714   1.262       .  A
C706       C1504   1.478       .  S
C707        O712   1.267       .  A
C707        O710   1.264       .  A
C707       C1376   1.488       .  S
Cd708       O715   2.455       .  S
Cd708       O714   2.463       .  S
Cd708       O713   2.458       .  S
Cd708       O709   2.526       .  S
Cd708       O712   2.511       .  S
Cd708       O710   2.488       .  S
C711        O715   1.265       .  A
C711       C1340   1.483       .  S
O716        C719   1.265       .  A
O716       Cd721   2.492       .  S
C717        O726   1.268       .  A
C717        O722   1.263       .  A
C717       C1432   1.476       .  S
O718        C724   1.266       .  A
O718       Cd721   2.497       .  S
C719        O727   1.266       .  A
C719       C1360   1.485       .  S
C720        O725   1.265       .  A
C720        O723   1.266       .  A
C720       C1324   1.487       .  S
Cd721       O728   2.477       .  S
Cd721       O727   2.492       .  S
Cd721       O726   2.508       .  S
Cd721       O722   2.445       .  S
Cd721       O725   2.491       .  S
Cd721       O723   2.508       .  S
C724        O728   1.265       .  A
C724       C1304   1.483       .  S
O729        C732   1.268       .  A
O729       Cd734   2.525       .  S
C730        O739   1.265       .  A
C730        O735   1.267       .  A
C730       C1468   1.482       .  S
O731        C737   1.266       .  A
O731       Cd734   2.510       .  S
C732        O740   1.263       .  A
C732       C1286   1.485       .  S
C733        O738   1.268       .  A
C733        O736   1.266       .  A
C733       C1378   1.486       .  S
Cd734       O741   2.462       .  S
Cd734       O740   2.473       .  S
Cd734       O739   2.474       .  S
Cd734       O735   2.499       .  S
Cd734       O738   2.512       .  S
Cd734       O736   2.476       .  S
C737        O741   1.263       .  A
C737       C1540   1.482       .  S
O742        C745   1.268       .  A
O742       Cd747   2.519       .  S
C743        O752   1.267       .  A
C743        O748   1.267       .  A
C743       C1288   1.485       .  S
O744        C750   1.268       .  A
O744       Cd747   2.512       .  S
C745        O753   1.263       .  A
C745       C1268   1.478       .  S
C746        O751   1.268       .  A
C746        O749   1.264       .  A
C746       C1250   1.484       .  S
Cd747       O754   2.447       .  S
Cd747       O753   2.447       .  S
Cd747       O752   2.492       .  S
Cd747       O748   2.484       .  S
Cd747       O751   2.522       .  S
Cd747       O749   2.464       .  S
C750        O754   1.264       .  A
C750       C1612   1.484       .  S
O755        C758   1.265       .  A
O755       Cd760   2.488       .  S
C756        O765   1.264       .  A
C756        O761   1.266       .  A
C756       C1234   1.480       .  S
O757        C763   1.267       .  A
O757       Cd760   2.514       .  S
C758        O766   1.265       .  A
C758       C1396   1.480       .  S
C759        O764   1.270       .  A
C759        O762   1.265       .  A
C759       C1322   1.484       .  S
Cd760       O767   2.467       .  S
Cd760       O766   2.484       .  S
Cd760       O765   2.472       .  S
Cd760       O761   2.497       .  S
Cd760       O764   2.520       .  S
Cd760       O762   2.456       .  S
C763        O767   1.263       .  A
C763       C2206   1.484       .  S
O768        C771   1.263       .  A
O768       Cd773   2.472       .  S
C769        O778   1.263       .  A
C769        O774   1.265       .  A
C769       C1216   1.476       .  S
O770        C776   1.263       .  A
O770       Cd773   2.484       .  S
C771        O779   1.266       .  A
C771       C1232   1.480       .  S
C772        O777   1.263       .  A
C772        O775   1.267       .  A
C772       C1252   1.483       .  S
Cd773       O780   2.485       .  S
Cd773       O779   2.497       .  S
Cd773       O778   2.461       .  S
Cd773       O774   2.507       .  S
Cd773       O777   2.475       .  S
Cd773       O775   2.505       .  S
C776        O780   1.265       .  A
C776       C2278   1.479       .  S
O781        C784   1.265       .  A
O781       Cd786   2.471   1_556  S
C782        O791   1.264       .  A
C782        O787   1.264       .  A
C782       C1486   1.472       .  S
O783        C789   1.262       .  A
O783       Cd786   2.445   1_556  S
C784        O792   1.265   1_556  A
C784       C1196   1.472       .  S
C785        O790   1.268       .  A
C785        O788   1.264       .  A
C785       C1178   1.477       .  S
Cd786       O793   2.498   1_554  S
Cd786       O792   2.448       .  S
Cd786       O791   2.454       .  S
Cd786       O787   2.464       .  S
Cd786       O790   2.499       .  S
Cd786       O788   2.424       .  S
C789        O793   1.266       .  A
C789       C2548   1.477       .  S
O794        C797   1.264   1_556  A
O794       Cd799   2.450   1_556  S
C795        O804   1.268   1_554  A
C795        O800   1.268       .  A
C795       C2150   1.476       .  S
O796        C802   1.265       .  A
O796       Cd799   2.507       .  S
C797        O805   1.265       .  A
C797       C1198   1.474       .  S
C798        O803   1.265       .  A
C798        O801   1.270       .  A
C798       C2620   1.483       .  S
Cd799       O806   2.464       .  S
Cd799       O805   2.487       .  S
Cd799       O804   2.455   1_554  S
Cd799       O800   2.466       .  S
Cd799       O803   2.426   1_554  S
Cd799       O801   2.511   1_554  S
C802        O806   1.262       .  A
C802       C1160   1.481       .  S
O807        C810   1.271       .  A
O807       Cd812   2.444       .  S
C808        O817   1.266   1_565  A
C808        O813   1.270       .  A
C808       C1142   1.473   1_565  S
O809        C815   1.274       .  A
O809       Cd812   2.521       .  S
C810        O818   1.267       .  A
C810       C2476   1.471       .  S
C811        O816   1.274       .  A
C811        O814   1.265       .  A
C811       C1124   1.482       .  S
Cd812       O819   2.385       .  S
Cd812       O818   2.435       .  S
Cd812       O817   2.430   1_565  S
Cd812       O813   2.475       .  S
Cd812       O816   2.510   1_565  S
Cd812       O814   2.394   1_565  S
C815        O819   1.265       .  A
C815       C1214   1.484       .  S
O820        C823   1.266       .  A
O820       Cd825   2.463       .  S
C821        O830   1.265   1_545  A
C821        O826   1.264       .  A
C821       C1738   1.470       .  S
O822        C828   1.269       .  A
O822       Cd825   2.515       .  S
C823        O831   1.267       .  A
C823       C1144   1.474       .  S
C824        O829   1.267       .  A
C824        O827   1.262       .  A
C824       C1106   1.483       .  S
Cd825       O832   2.442       .  S
Cd825       O831   2.448       .  S
Cd825       O830   2.443       .  S
Cd825       O826   2.470   1_565  S
Cd825       O829   2.522   1_565  S
Cd825       O827   2.431   1_565  S
C828        O832   1.264       .  A
C828       C1270   1.485       .  S
O833        C836   1.266   1_455  A
O833       Cd838   2.461       .  S
C834        O843   1.264       .  A
C834        O839   1.268       .  A
C834       C2818   1.468       .  S
O835        C841   1.270       .  A
O835       Cd838   2.508   1_655  S
C836        O844   1.267       .  A
C836       C1088   1.472       .  S
C837        O842   1.270       .  A
C837        O840   1.264       .  A
C837       C1070   1.479       .  S
Cd838       O845   2.415   1_455  S
Cd838       O844   2.439   1_455  S
Cd838       O843   2.434       .  S
Cd838       O839   2.459       .  S
Cd838       O842   2.511       .  S
Cd838       O840   2.400       .  S
C841        O845   1.264       .  A
C841       C1864   1.481       .  S
O846        C849   1.270       .  A
O846       Cd851   2.447   1_455  S
C847        O856   1.264       .  A
C847        O852   1.269       .  A
C847       C1090   1.467       .  S
O848        C854   1.264       .  A
O848       Cd851   2.436       .  S
C849        O857   1.266       .  A
C849       C1414   1.467       .  S
C850        O855   1.264       .  A
C850        O853   1.271       .  A
C850       C1052   1.482       .  S
Cd851       O858   2.499       .  S
Cd851       O857   2.424   1_655  S
Cd851       O856   2.413       .  S
Cd851       O852   2.473       .  S
Cd851       O855   2.422   1_655  S
Cd851       O853   2.510   1_655  S
C854        O858   1.269       .  A
C854       C1954   1.478       .  S
O859        C862   1.267       .  A
O859       Cd864   2.498       .  S
C860        O869   1.264       .  A
C860        O865   1.264       .  A
C860       C1162   1.479       .  S
O861        C867   1.269       .  A
O861       Cd864   2.500       .  S
C862        O870   1.264       .  A
C862       C1034   1.481       .  S
C863        O868   1.267       .  A
C863        O866   1.263       .  A
C863       C2062   1.483       .  S
Cd864       O871   2.473       .  S
Cd864       O870   2.468       .  S
Cd864       O869   2.475       .  S
Cd864       O865   2.491       .  S
Cd864       O868   2.513       .  S
Cd864       O866   2.453       .  S
C867        O871   1.266       .  A
C867       C1018   1.485       .  S
O872        C875   1.266       .  A
O872       Cd877   2.475       .  S
C873        O882   1.263       .  A
C873        O878   1.267       .  A
C873       C1108   1.475       .  S
O874        C880   1.266       .  A
O874       Cd877   2.505       .  S
C875        O883   1.267       .  A
C875       C1036   1.480       .  S
C876        O881   1.267       .  A
C876        O879   1.264       .  A
C876       C1000   1.480       .  S
Cd877       O884   2.459       .  S
Cd877       O883   2.479       .  S
Cd877       O882   2.443       .  S
Cd877       O878   2.508       .  S
Cd877       O881   2.498       .  S
Cd877       O879   2.465       .  S
C880        O884   1.265       .  A
C880       C2008   1.484       .  S
O885        C888   1.265       .  A
O885       Cd890   2.498       .  S
C886        O895   1.264       .  A
C886        O891   1.262       .  A
C886       C1180   1.476       .  S
O887        C893   1.267       .  A
O887       Cd890   2.499       .  S
C888        O896   1.264       .  A
C888        C980   1.480       .  S
C889        O894   1.267       .  A
C889        O892   1.265       .  A
C889       C1016   1.486       .  S
Cd890       O897   2.479       .  S
Cd890       O896   2.475       .  S
Cd890       O895   2.491       .  S
Cd890       O891   2.478       .  S
Cd890       O894   2.498       .  S
Cd890       O892   2.496       .  S
C893        O897   1.265       .  A
C893       C1342   1.485       .  S
O898        C901   1.264       .  A
O898       Cd903   2.443       .  S
C899        O908   1.265       .  A
C899        O904   1.265       .  A
C899        C982   1.484       .  S
O900        C906   1.268       .  A
O900       Cd903   2.506       .  S
C901        O909   1.268       .  A
C901       C1054   1.475       .  S
C902        O907   1.265       .  A
C902        O905   1.266       .  A
C902        C962   1.483       .  S
Cd903       O910   2.455       .  S
Cd903       O909   2.499       .  S
Cd903       O908   2.479       .  S
Cd903       O904   2.499       .  S
Cd903       O907   2.488       .  S
Cd903       O905   2.494       .  S
C906        O910   1.263       .  A
C906       C1306   1.478       .  S
O911        C914   1.267       .  A
O911       Cd916   2.511       .  S
C912        O921   1.264       .  A
C912        O917   1.268       .  A
C912        C944   1.475       .  S
O913        C919   1.266       .  A
O913       Cd916   2.505       .  S
C914        O922   1.262       .  A
C914       C1126   1.474       .  S
C915        O920   1.266       .  A
C915        O918   1.267       .  A
C915        C998   1.480       .  S
Cd916       O923   2.455       .  S
Cd916       O922   2.439       .  S
Cd916       O921   2.450       .  S
Cd916       O917   2.489       .  S
Cd916       O920   2.475       .  S
Cd916       O918   2.473       .  S
C919        O923   1.262       .  A
C919       C2672   1.476       .  S
O924        C927   1.265       .  A
O924       Cd929   2.477       .  S
C925        O934   1.266       .  A
C925        O930   1.263       .  A
C925       C1072   1.475       .  S
O926        C932   1.266       .  A
O926       Cd929   2.500       .  S
C927        O935   1.267       .  A
C927        C946   1.478       .  S
C928        O933   1.266       .  A
C928        O931   1.264       .  A
C928        C964   1.478       .  S
Cd929       O936   2.462       .  S
Cd929       O935   2.469       .  S
Cd929       O934   2.498       .  S
Cd929       O930   2.456       .  S
Cd929       O933   2.496       .  S
Cd929       O931   2.464       .  S
C932        O936   1.265       .  A
C932       C2728   1.483       .  S
C937        C945   1.487       .  S
C937        C938   1.403       .  A
C937        C942   1.408       .  A
C938        C939   1.398       .  A
C938        H947   1.083       .  S
C939        C940   1.407       .  A
C939        H948   1.082       .  S
C940        C943   1.489       .  S
C940        C941   1.404       .  A
C941        C942   1.401       .  A
C941        H949   1.083       .  S
C942        H950   1.082       .  S
C943        H951   1.087       .  S
C943        C944   1.346       .  D
C944        H952   1.085       .  S
C945        H953   1.087       .  S
C945        C946   1.346       .  D
C946        H954   1.085       .  S
C955        C963   1.493       .  S
C955        C956   1.405       .  A
C955        C960   1.408       .  A
C956        C957   1.403       .  A
C956        H965   1.083       .  S
C957        C958   1.410       .  A
C957        H966   1.080       .  S
C958        C961   1.496       .  S
C958        C959   1.405       .  A
C959        C960   1.399       .  A
C959        H967   1.083       .  S
C960        H968   1.081       .  S
C961        H969   1.087       .  S
C961        C962   1.349       .  D
C962        H970   1.082       .  S
C963        H971   1.087       .  S
C963        C964   1.348       .  D
C964        H972   1.084       .  S
C973        C981   1.495       .  S
C973        C974   1.404       .  A
C973        C978   1.409       .  A
C974        C975   1.399       .  A
C974        H983   1.083       .  S
C975        C976   1.408       .  A
C975        H984   1.081       .  S
C976        C979   1.495       .  S
C976        C977   1.406       .  A
C977        C978   1.404       .  A
C977        H985   1.083       .  S
C978        H986   1.081       .  S
C979        H987   1.087       .  S
C979        C980   1.349       .  D
C980        H988   1.084       .  S
C981        H989   1.087       .  S
C981        C982   1.349       .  D
C982        H990   1.084       .  S
C991        C999   1.497       .  S
C991        C992   1.406       .  A
C991        C996   1.410       .  A
C992        C993   1.401       .  A
C992       H1001   1.083       .  S
C993        C994   1.409       .  A
C993       H1002   1.080       .  S
C994        C997   1.494       .  S
C994        C995   1.404       .  A
C995        C996   1.399       .  A
C995       H1003   1.083       .  S
C996       H1004   1.079       .  S
C997       H1005   1.086       .  S
C997        C998   1.348       .  D
C998       H1006   1.082       .  S
C999       H1007   1.087       .  S
C999       C1000   1.349       .  D
C1000      H1008   1.081       .  S
C1009      C1017   1.497       .  S
C1009      C1010   1.405       .  A
C1009      C1014   1.408       .  A
C1010      C1011   1.403       .  A
C1010      H1019   1.083       .  S
C1011      C1012   1.410       .  A
C1011      H1020   1.079       .  S
C1012      C1015   1.501       .  S
C1012      C1013   1.408       .  A
C1013      C1014   1.403       .  A
C1013      H1021   1.083       .  S
C1014      H1022   1.082       .  S
C1015      H1023   1.087       .  S
C1015      C1016   1.353       .  D
C1016      H1024   1.082       .  S
C1017      H1025   1.086       .  S
C1017      C1018   1.349       .  D
C1018      H1026   1.084       .  S
C1027      C1035   1.496       .  S
C1027      C1028   1.406       .  A
C1027      C1032   1.410       .  A
C1028      C1029   1.400       .  A
C1028      H1037   1.083       .  S
C1029      C1030   1.408       .  A
C1029      H1038   1.081       .  S
C1030      C1033   1.495       .  S
C1030      C1031   1.405       .  A
C1031      C1032   1.401       .  A
C1031      H1039   1.083       .  S
C1032      H1040   1.079       .  S
C1033      H1041   1.087       .  S
C1033      C1034   1.348       .  D
C1034      H1042   1.083       .  S
C1035      H1043   1.087       .  S
C1035      C1036   1.349       .  D
C1036      H1044   1.082       .  S
C1045      C1053   1.490       .  S
C1045      C1046   1.405       .  A
C1045      C1050   1.406       .  A
C1046      C1047   1.404       .  A
C1046      H1055   1.083       .  S
C1047      C1048   1.409       .  A
C1047      H1056   1.081       .  S
C1048      C1051   1.490       .  S
C1048      C1049   1.405       .  A
C1049      C1050   1.396       .  A
C1049      H1057   1.083       .  S
C1050      H1058   1.082       .  S
C1051      H1059   1.087       .  S
C1051      C1052   1.350       .  D
C1052      H1060   1.083       .  S
C1053      H1061   1.087       .  S
C1053      C1054   1.347       .  D
C1054      H1062   1.085       .  S
C1063      C1071   1.489       .  S
C1063      C1064   1.406       .  A
C1063      C1068   1.406       .  A
C1064      C1065   1.404       .  A
C1064      H1073   1.083       .  S
C1065      C1066   1.407       .  A
C1065      H1074   1.082       .  S
C1066      C1069   1.485       .  S
C1066      C1067   1.403       .  A
C1067      C1068   1.394       .  A
C1067      H1075   1.083       .  S
C1068      H1076   1.082       .  S
C1069      H1077   1.087       .  S
C1069      C1070   1.348       .  D
C1070      H1078   1.084       .  S
C1071      H1079   1.086       .  S
C1071      C1072   1.347       .  D
C1072      H1080   1.085       .  S
C1081      C1089   1.482       .  S
C1081      C1082   1.402       .  A
C1081      C1086   1.406       .  A
C1082      C1083   1.399       .  A
C1082      H1091   1.083   1_655  S
C1083      C1084   1.409       .  A
C1083      H1092   1.080   1_655  S
C1084      C1087   1.484       .  S
C1084      C1085   1.402       .  A
C1085      C1086   1.394       .  A
C1085      H1093   1.083       .  S
C1086      H1094   1.082       .  S
C1087      H1095   1.087       .  S
C1087      C1088   1.344       .  D
C1088      H1096   1.083   1_655  S
C1089      H1097   1.087       .  S
C1089      C1090   1.342       .  D
C1090      H1098   1.085       .  S
C1099      C1107   1.489       .  S
C1099      C1100   1.405       .  A
C1099      C1104   1.405       .  A
C1100      C1101   1.406       .  A
C1100      H1109   1.083       .  S
C1101      C1102   1.410       .  A
C1101      H1110   1.080       .  S
C1102      C1105   1.490       .  S
C1102      C1103   1.404       .  A
C1103      C1104   1.393       .  A
C1103      H1111   1.084       .  S
C1104      H1112   1.083       .  S
C1105      H1113   1.087       .  S
C1105      C1106   1.349       .  D
C1106      H1114   1.083       .  S
C1107      H1115   1.086       .  S
C1107      C1108   1.347       .  D
C1108      H1116   1.086       .  S
C1117      C1125   1.490       .  S
C1117      C1118   1.406       .  A
C1117      C1122   1.406       .  A
C1118      C1119   1.405       .  A
C1118      H1127   1.083       .  S
C1119      C1120   1.409       .  A
C1119      H1128   1.081       .  S
C1120      C1123   1.489       .  S
C1120      C1121   1.404       .  A
C1121      C1122   1.393       .  A
C1121      H1129   1.083       .  S
C1122      H1130   1.082       .  S
C1123      H1131   1.087       .  S
C1123      C1124   1.350       .  D
C1124      H1132   1.083       .  S
C1125      H1133   1.086       .  S
C1125      C1126   1.347       .  D
C1126      H1134   1.085       .  S
C1135      C1143   1.485       .  S
C1135      C1136   1.402   1_565  A
C1135      C1140   1.408       .  A
C1136      C1137   1.396       .  A
C1136      H1145   1.083       .  S
C1137      C1138   1.408       .  A
C1137      H1146   1.081       .  S
C1138      C1141   1.488   1_545  S
C1138      C1139   1.404   1_545  A
C1139      C1140   1.400       .  A
C1139      H1147   1.083       .  S
C1140      H1148   1.081       .  S
C1141      H1149   1.087       .  S
C1141      C1142   1.345   1_565  D
C1142      H1150   1.084       .  S
C1143      H1151   1.087   1_565  S
C1143      C1144   1.345       .  D
C1144      H1152   1.084       .  S
C1153      C1161   1.487       .  S
C1153      C1154   1.404       .  A
C1153      C1158   1.407       .  A
C1154      C1155   1.401       .  A
C1154      H1163   1.084       .  S
C1155      C1156   1.407       .  A
C1155      H1164   1.082       .  S
C1156      C1159   1.488       .  S
C1156      C1157   1.404       .  A
C1157      C1158   1.400       .  A
C1157      H1165   1.084       .  S
C1158      H1166   1.082       .  S
C1159      H1167   1.087       .  S
C1159      C1160   1.348       .  D
C1160      H1168   1.086       .  S
C1161      H1169   1.087       .  S
C1161      C1162   1.346       .  D
C1162      H1170   1.086       .  S
C1171      C1179   1.488       .  S
C1171      C1172   1.405       .  A
C1171      C1176   1.407       .  A
C1172      C1173   1.401       .  A
C1172      H1181   1.083       .  S
C1173      C1174   1.407       .  A
C1173      H1182   1.082       .  S
C1174      C1177   1.484       .  S
C1174      C1175   1.402       .  A
C1175      C1176   1.397       .  A
C1175      H1183   1.084       .  S
C1176      H1184   1.082       .  S
C1177      H1185   1.088       .  S
C1177      C1178   1.346       .  D
C1178      H1186   1.085       .  S
C1179      H1187   1.087       .  S
C1179      C1180   1.346       .  D
C1180      H1188   1.085       .  S
C1189      C1197   1.480   1_554  S
C1189      C1190   1.402   1_554  A
C1189      C1194   1.406       .  A
C1190      C1191   1.397       .  A
C1190      H1199   1.084       .  S
C1191      C1192   1.405   1_556  A
C1191      H1200   1.083       .  S
C1192      C1195   1.479       .  S
C1192      C1193   1.403       .  A
C1193      C1194   1.398       .  A
C1193      H1201   1.083       .  S
C1194      H1202   1.083       .  S
C1195      H1203   1.087       .  S
C1195      C1196   1.343   1_554  D
C1196      H1204   1.086       .  S
C1197      H1205   1.087       .  S
C1197      C1198   1.345   1_556  D
C1198      H1206   1.086       .  S
C1207      C1215   1.493       .  S
C1207      C1208   1.408       .  A
C1207      C1212   1.406       .  A
C1208      C1209   1.406       .  A
C1208      H1217   1.083       .  S
C1209      C1210   1.407       .  A
C1209      H1218   1.081       .  S
C1210      C1213   1.486       .  S
C1210      C1211   1.403       .  A
C1211      C1212   1.393       .  A
C1211      H1219   1.083       .  S
C1212      H1220   1.081       .  S
C1213      H1221   1.088       .  S
C1213      C1214   1.350       .  D
C1214      H1222   1.085       .  S
C1215      H1223   1.087       .  S
C1215      C1216   1.349       .  D
C1216      H1224   1.085       .  S
C1225      C1233   1.495       .  S
C1225      C1226   1.405       .  A
C1225      C1230   1.409       .  A
C1226      C1227   1.400       .  A
C1226      H1235   1.083       .  S
C1227      C1228   1.409       .  A
C1227      H1236   1.081       .  S
C1228      C1231   1.494       .  S
C1228      C1229   1.405       .  A
C1229      C1230   1.401       .  A
C1229      H1237   1.083       .  S
C1230      H1238   1.080       .  S
C1231      H1239   1.087       .  S
C1231      C1232   1.348       .  D
C1232      H1240   1.084       .  S
C1233      H1241   1.087       .  S
C1233      C1234   1.348       .  D
C1234      H1242   1.083       .  S
C1243      C1251   1.496       .  S
C1243      C1244   1.404       .  A
C1243      C1248   1.410       .  A
C1244      C1245   1.401       .  A
C1244      H1253   1.083       .  S
C1245      C1246   1.410       .  A
C1245      H1254   1.081       .  S
C1246      C1249   1.499       .  S
C1246      C1247   1.406       .  A
C1247      C1248   1.403       .  A
C1247      H1255   1.083       .  S
C1248      H1256   1.081       .  S
C1249      H1257   1.087       .  S
C1249      C1250   1.350       .  D
C1250      H1258   1.083       .  S
C1251      H1259   1.086       .  S
C1251      C1252   1.348       .  D
C1252      H1260   1.083       .  S
C1261      C1269   1.492       .  S
C1261      C1262   1.404       .  A
C1261      C1266   1.409       .  A
C1262      C1263   1.396       .  A
C1262      H1271   1.083       .  S
C1263      C1264   1.407       .  A
C1263      H1272   1.081       .  S
C1264      C1267   1.495       .  S
C1264      C1265   1.407       .  A
C1265      C1266   1.406       .  A
C1265      H1273   1.083       .  S
C1266      H1274   1.081       .  S
C1267      H1275   1.086       .  S
C1267      C1268   1.348       .  D
C1268      H1276   1.084       .  S
C1269      H1277   1.087       .  S
C1269      C1270   1.350       .  D
C1270      H1278   1.084       .  S
C1279      C1287   1.500       .  S
C1279      C1280   1.406       .  A
C1279      C1284   1.410       .  A
C1280      C1281   1.402       .  A
C1280      H1289   1.083       .  S
C1281      C1282   1.410       .  A
C1281      H1290   1.080       .  S
C1282      C1285   1.502       .  S
C1282      C1283   1.406       .  A
C1283      C1284   1.404       .  A
C1283      H1291   1.083       .  S
C1284      H1292   1.080       .  S
C1285      H1293   1.087       .  S
C1285      C1286   1.350       .  D
C1286      H1294   1.082       .  S
C1287      H1295   1.087       .  S
C1287      C1288   1.351       .  D
C1288      H1296   1.082       .  S
C1297      C1305   1.493       .  S
C1297      C1298   1.404       .  A
C1297      C1302   1.407       .  A
C1298      C1299   1.403       .  A
C1298      H1307   1.083       .  S
C1299      C1300   1.410       .  A
C1299      H1308   1.080       .  S
C1300      C1303   1.495       .  S
C1300      C1301   1.405       .  A
C1301      C1302   1.399       .  A
C1301      H1309   1.083       .  S
C1302      H1310   1.082       .  S
C1303      H1311   1.087       .  S
C1303      C1304   1.349       .  D
C1304      H1312   1.083       .  S
C1305      H1313   1.087       .  S
C1305      C1306   1.347       .  D
C1306      H1314   1.085       .  S
C1315      C1323   1.502       .  S
C1315      C1316   1.406       .  A
C1315      C1320   1.411       .  A
C1316      C1317   1.401       .  A
C1316      H1325   1.083       .  S
C1317      C1318   1.409       .  A
C1317      H1326   1.081       .  S
C1318      C1321   1.500       .  S
C1318      C1319   1.406       .  A
C1319      C1320   1.405       .  A
C1319      H1327   1.083       .  S
C1320      H1328   1.080       .  S
C1321      H1329   1.087       .  S
C1321      C1322   1.349       .  D
C1322      H1330   1.084       .  S
C1323      H1331   1.087       .  S
C1323      C1324   1.351       .  D
C1324      H1332   1.082       .  S
C1333      C1341   1.498       .  S
C1333      C1334   1.406       .  A
C1333      C1338   1.409       .  A
C1334      C1335   1.401       .  A
C1334      H1343   1.083       .  S
C1335      C1336   1.409       .  A
C1335      H1344   1.080       .  S
C1336      C1339   1.499       .  S
C1336      C1337   1.405       .  A
C1337      C1338   1.403       .  A
C1337      H1345   1.083       .  S
C1338      H1346   1.080       .  S
C1339      H1347   1.087       .  S
C1339      C1340   1.349       .  D
C1340      H1348   1.083       .  S
C1341      H1349   1.087       .  S
C1341      C1342   1.352       .  D
C1342      H1350   1.082       .  S
C1351      C1359   1.498       .  S
C1351      C1352   1.404       .  A
C1351      C1356   1.411       .  A
C1352      C1353   1.399       .  A
C1352      H1361   1.083       .  S
C1353      C1354   1.409       .  A
C1353      H1362   1.081       .  S
C1354      C1357   1.499       .  S
C1354      C1355   1.406       .  A
C1355      C1356   1.405       .  A
C1355      H1363   1.083       .  S
C1356      H1364   1.080       .  S
C1357      H1365   1.087       .  S
C1357      C1358   1.350       .  D
C1358      H1366   1.083       .  S
C1359      H1367   1.087       .  S
C1359      C1360   1.349       .  D
C1360      H1368   1.083       .  S
C1369      C1377   1.501       .  S
C1369      C1370   1.407       .  A
C1369      C1374   1.409       .  A
C1370      C1371   1.405       .  A
C1370      H1379   1.083       .  S
C1371      C1372   1.410       .  A
C1371      H1380   1.080       .  S
C1372      C1375   1.501       .  S
C1372      C1373   1.407       .  A
C1373      C1374   1.402       .  A
C1373      H1381   1.083       .  S
C1374      H1382   1.081       .  S
C1375      H1383   1.087       .  S
C1375      C1376   1.353       .  D
C1376      H1384   1.083       .  S
C1377      H1385   1.087       .  S
C1377      C1378   1.351       .  D
C1378      H1386   1.084       .  S
C1387      C1395   1.490       .  S
C1387      C1388   1.405       .  A
C1387      C1392   1.407       .  A
C1388      C1389   1.402       .  A
C1388      H1397   1.083       .  S
C1389      C1390   1.407       .  A
C1389      H1398   1.082       .  S
C1390      C1393   1.488       .  S
C1390      C1391   1.404       .  A
C1391      C1392   1.399       .  A
C1391      H1399   1.083       .  S
C1392      H1400   1.082       .  S
C1393      H1401   1.087       .  S
C1393      C1394   1.348       .  D
C1394      H1402   1.085       .  S
C1395      H1403   1.087       .  S
C1395      C1396   1.347       .  D
C1396      H1404   1.085       .  S
C1405      C1413   1.480       .  S
C1405      C1406   1.401   1_455  A
C1405      C1410   1.406       .  A
C1406      C1407   1.396       .  A
C1406      H1415   1.083       .  S
C1407      C1408   1.408   1_655  A
C1407      H1416   1.080       .  S
C1408      C1411   1.482       .  S
C1408      C1409   1.402       .  A
C1409      C1410   1.394       .  A
C1409      H1417   1.083       .  S
C1410      H1418   1.082       .  S
C1411      H1419   1.087       .  S
C1411      C1412   1.343       .  D
C1412      H1420   1.083   1_455  S
C1413      H1421   1.087       .  S
C1413      C1414   1.342       .  D
C1414      H1422   1.085       .  S
C1423      C1431   1.492       .  S
C1423      C1424   1.406       .  A
C1423      C1428   1.406       .  A
C1424      C1425   1.405       .  A
C1424      H1433   1.083       .  S
C1425      C1426   1.409       .  A
C1425      H1434   1.081       .  S
C1426      C1429   1.491       .  S
C1426      C1427   1.404       .  A
C1427      C1428   1.395       .  A
C1427      H1435   1.083       .  S
C1428      H1436   1.081       .  S
C1429      H1437   1.087       .  S
C1429      C1430   1.349       .  D
C1430      H1438   1.083       .  S
C1431      H1439   1.086       .  S
C1431      C1432   1.347       .  D
C1432      H1440   1.084       .  S
C1441      C1449   1.477       .  S
C1441      C1442   1.401       .  A
C1441      C1446   1.407   1_655  A
C1442      C1443   1.394       .  A
C1442      H1451   1.083       .  S
C1443      C1444   1.405   1_655  A
C1443      H1452   1.083       .  S
C1444      C1447   1.475       .  S
C1444      C1445   1.401       .  A
C1445      C1446   1.398       .  A
C1445      H1453   1.083       .  S
C1446      H1454   1.082       .  S
C1447      H1455   1.087       .  S
C1447      C1448   1.341   1_455  D
C1448      H1456   1.086       .  S
C1449      H1457   1.088       .  S
C1449      C1450   1.342   1_655  D
C1450      H1458   1.086       .  S
C1459      C1467   1.488       .  S
C1459      C1460   1.405       .  A
C1459      C1464   1.407       .  A
C1460      C1461   1.401       .  A
C1460      H1469   1.083       .  S
C1461      C1462   1.405       .  A
C1461      H1470   1.083       .  S
C1462      C1465   1.483       .  S
C1462      C1463   1.403       .  A
C1463      C1464   1.401       .  A
C1463      H1471   1.083       .  S
C1464      H1472   1.082       .  S
C1465      H1473   1.087       .  S
C1465      C1466   1.346       .  D
C1466      H1474   1.086       .  S
C1467      H1475   1.087       .  S
C1467      C1468   1.347       .  D
C1468      H1476   1.086       .  S
C1477      C1485   1.486       .  S
C1477      C1478   1.404       .  A
C1477      C1482   1.408       .  A
C1478      C1479   1.398       .  A
C1478      H1487   1.083       .  S
C1479      C1480   1.407       .  A
C1479      H1488   1.082       .  S
C1480      C1483   1.483       .  S
C1480      C1481   1.401       .  A
C1481      C1482   1.396       .  A
C1481      H1489   1.083       .  S
C1482      H1490   1.080       .  S
C1483      H1491   1.087       .  S
C1483      C1484   1.343       .  D
C1484      H1492   1.084       .  S
C1485      H1493   1.087       .  S
C1485      C1486   1.346       .  D
C1486      H1494   1.083       .  S
C1495      C1503   1.485       .  S
C1495      C1496   1.404       .  A
C1495      C1500   1.407       .  A
C1496      C1497   1.399       .  A
C1496      H1505   1.083       .  S
C1497      C1498   1.405       .  A
C1497      H1506   1.083       .  S
C1498      C1501   1.483       .  S
C1498      C1499   1.403       .  A
C1499      C1500   1.400       .  A
C1499      H1507   1.083       .  S
C1500      H1508   1.082       .  S
C1501      H1509   1.087       .  S
C1501      C1502   1.347       .  D
C1502      H1510   1.086       .  S
C1503      H1511   1.087       .  S
C1503      C1504   1.346       .  D
C1504      H1512   1.086       .  S
C1513      C1521   1.482       .  S
C1513      C1514   1.402       .  A
C1513      C1518   1.406   1_554  A
C1514      C1515   1.400       .  A
C1514      H1523   1.083       .  S
C1515      C1516   1.409       .  A
C1515      H1524   1.081       .  S
C1516      C1519   1.483       .  S
C1516      C1517   1.402   1_554  A
C1517      C1518   1.394       .  A
C1517      H1525   1.084       .  S
C1518      H1526   1.082       .  S
C1519      H1527   1.087   1_554  S
C1519      C1520   1.344       .  D
C1520      H1528   1.084       .  S
C1521      H1529   1.087       .  S
C1521      C1522   1.342       .  D
C1522      H1530   1.086       .  S
C1531      C1539   1.488       .  S
C1531      C1532   1.403       .  A
C1531      C1536   1.408       .  A
C1532      C1533   1.397       .  A
C1532      H1541   1.083       .  S
C1533      C1534   1.407       .  A
C1533      H1542   1.082       .  S
C1534      C1537   1.491       .  S
C1534      C1535   1.405       .  A
C1535      C1536   1.404       .  A
C1535      H1543   1.083       .  S
C1536      H1544   1.082       .  S
C1537      H1545   1.086       .  S
C1537      C1538   1.347       .  D
C1538      H1546   1.085       .  S
C1539      H1547   1.087       .  S
C1539      C1540   1.347       .  D
C1540      H1548   1.085       .  S
C1549      C1557   1.496       .  S
C1549      C1550   1.405       .  A
C1549      C1554   1.408       .  A
C1550      C1551   1.403       .  A
C1550      H1559   1.083       .  S
C1551      C1552   1.410       .  A
C1551      H1560   1.079       .  S
C1552      C1555   1.499       .  S
C1552      C1553   1.406       .  A
C1553      C1554   1.401       .  A
C1553      H1561   1.083       .  S
C1554      H1562   1.081       .  S
C1555      H1563   1.087       .  S
C1555      C1556   1.351       .  D
C1556      H1564   1.082       .  S
C1557      H1565   1.087       .  S
C1557      C1558   1.348       .  D
C1558      H1566   1.084       .  S
C1567      C1575   1.500       .  S
C1567      C1568   1.406       .  A
C1567      C1572   1.409       .  A
C1568      C1569   1.404       .  A
C1568      H1577   1.083       .  S
C1569      C1570   1.410       .  A
C1569      H1578   1.079       .  S
C1570      C1573   1.500       .  S
C1570      C1571   1.406       .  A
C1571      C1572   1.401       .  A
C1571      H1579   1.083       .  S
C1572      H1580   1.081       .  S
C1573      H1581   1.087       .  S
C1573      C1574   1.352       .  D
C1574      H1582   1.083       .  S
C1575      H1583   1.087       .  S
C1575      C1576   1.349       .  D
C1576      H1584   1.084       .  S
C1585      C1593   1.490       .  S
C1585      C1586   1.403       .  A
C1585      C1590   1.410       .  A
C1586      C1587   1.395       .  A
C1586      H1595   1.083       .  S
C1587      C1588   1.406       .  A
C1587      H1596   1.083       .  S
C1588      C1591   1.491       .  S
C1588      C1589   1.405       .  A
C1589      C1590   1.405       .  A
C1589      H1597   1.083       .  S
C1590      H1598   1.081       .  S
C1591      H1599   1.086       .  S
C1591      C1592   1.346       .  D
C1592      H1600   1.086       .  S
C1593      H1601   1.087       .  S
C1593      C1594   1.349       .  D
C1594      H1602   1.084       .  S
C1603      C1611   1.491       .  S
C1603      C1604   1.403       .  A
C1603      C1608   1.409       .  A
C1604      C1605   1.397       .  A
C1604      H1613   1.083       .  S
C1605      C1606   1.408       .  A
C1605      H1614   1.082       .  S
C1606      C1609   1.495       .  S
C1606      C1607   1.406       .  A
C1607      C1608   1.406       .  A
C1607      H1615   1.083       .  S
C1608      H1616   1.081       .  S
C1609      H1617   1.087       .  S
C1609      C1610   1.347       .  D
C1610      H1618   1.085       .  S
C1611      H1619   1.087       .  S
C1611      C1612   1.349       .  D
C1612      H1620   1.084       .  S
C1621      C1629   1.491       .  S
C1621      C1622   1.403       .  A
C1621      C1626   1.409       .  A
C1622      C1623   1.396       .  A
C1622      H1631   1.083       .  S
C1623      C1624   1.408       .  A
C1623      H1632   1.081       .  S
C1624      C1627   1.492       .  S
C1624      C1625   1.405       .  A
C1625      C1626   1.402       .  A
C1625      H1633   1.083       .  S
C1626      H1634   1.080       .  S
C1627      H1635   1.087       .  S
C1627      C1628   1.347       .  D
C1628      H1636   1.084       .  S
C1629      H1637   1.087       .  S
C1629      C1630   1.347       .  D
C1630      H1638   1.083       .  S
C1639      C1647   1.492       .  S
C1639      C1640   1.403       .  A
C1639      C1644   1.409       .  A
C1640      C1641   1.400       .  A
C1640      H1649   1.083       .  S
C1641      C1642   1.410       .  A
C1641      H1650   1.080       .  S
C1642      C1645   1.495       .  S
C1642      C1643   1.404       .  A
C1643      C1644   1.400       .  A
C1643      H1651   1.083       .  S
C1644      H1652   1.081       .  S
C1645      H1653   1.087       .  S
C1645      C1646   1.347       .  D
C1646      H1654   1.082       .  S
C1647      H1655   1.087       .  S
C1647      C1648   1.346       .  D
C1648      H1656   1.084       .  S
C1657      C1665   1.488       .  S
C1657      C1658   1.403       .  A
C1657      C1662   1.409       .  A
C1658      C1659   1.392       .  A
C1658      H1667   1.084       .  S
C1659      C1660   1.405       .  A
C1659      H1668   1.082       .  S
C1660      C1663   1.490       .  S
C1660      C1661   1.406       .  A
C1661      C1662   1.406       .  A
C1661      H1669   1.083       .  S
C1662      H1670   1.081       .  S
C1663      H1671   1.086       .  S
C1663      C1664   1.347       .  D
C1664      H1672   1.085       .  S
C1665      H1673   1.087       .  S
C1665      C1666   1.349       .  D
C1666      H1674   1.084       .  S
C1675      C1683   1.489       .  S
C1675      C1676   1.403       .  A
C1675      C1680   1.408       .  A
C1676      C1677   1.400       .  A
C1676      H1685   1.083       .  S
C1677      C1678   1.408       .  A
C1677      H1686   1.082       .  S
C1678      C1681   1.491       .  S
C1678      C1679   1.404       .  A
C1679      C1680   1.401       .  A
C1679      H1687   1.083       .  S
C1680      H1688   1.082       .  S
C1681      H1689   1.087       .  S
C1681      C1682   1.346       .  D
C1682      H1690   1.085       .  S
C1683      H1691   1.087       .  S
C1683      C1684   1.346       .  D
C1684      H1692   1.085       .  S
C1693      C1701   1.494       .  S
C1693      C1694   1.405       .  A
C1693      C1698   1.409       .  A
C1694      C1695   1.400       .  A
C1694      H1703   1.083       .  S
C1695      C1696   1.408       .  A
C1695      H1704   1.080       .  S
C1696      C1699   1.493       .  S
C1696      C1697   1.404       .  A
C1697      C1698   1.400       .  A
C1697      H1705   1.083       .  S
C1698      H1706   1.080       .  S
C1699      H1707   1.087       .  S
C1699      C1700   1.348       .  D
C1700      H1708   1.083       .  S
C1701      H1709   1.087       .  S
C1701      C1702   1.349       .  D
C1702      H1710   1.083       .  S
C1711      C1719   1.493       .  S
C1711      C1712   1.406       .  A
C1711      C1716   1.409       .  A
C1712      C1713   1.403       .  A
C1712      H1721   1.083       .  S
C1713      C1714   1.406       .  A
C1713      H1722   1.082       .  S
C1714      C1717   1.487       .  S
C1714      C1715   1.403       .  A
C1715      C1716   1.398       .  A
C1715      H1723   1.084       .  S
C1716      H1724   1.081       .  S
C1717      H1725   1.088       .  S
C1717      C1718   1.348       .  D
C1718      H1726   1.086       .  S
C1719      H1727   1.087       .  S
C1719      C1720   1.347       .  D
C1720      H1728   1.085       .  S
C1729      C1737   1.476       .  S
C1729      C1730   1.400       .  A
C1729      C1734   1.406   1_565  A
C1730      C1731   1.394       .  A
C1730      H1739   1.084       .  S
C1731      C1732   1.406   1_565  A
C1731      H1740   1.082       .  S
C1732      C1735   1.478       .  S
C1732      C1733   1.402       .  A
C1733      C1734   1.398       .  A
C1733      H1741   1.083       .  S
C1734      H1742   1.082       .  S
C1735      H1743   1.087       .  S
C1735      C1736   1.342   1_545  D
C1736      H1744   1.086       .  S
C1737      H1745   1.088       .  S
C1737      C1738   1.341   1_565  D
C1738      H1746   1.087       .  S
C1747      C1755   1.486       .  S
C1747      C1748   1.404       .  A
C1747      C1752   1.406       .  A
C1748      C1749   1.403       .  A
C1748      H1757   1.083       .  S
C1749      C1750   1.409       .  A
C1749      H1758   1.081       .  S
C1750      C1753   1.486       .  S
C1750      C1751   1.403       .  A
C1751      C1752   1.394       .  A
C1751      H1759   1.084       .  S
C1752      H1760   1.082       .  S
C1753      H1761   1.088       .  S
C1753      C1754   1.347       .  D
C1754      H1762   1.084       .  S
C1755      H1763   1.087       .  S
C1755      C1756   1.345       .  D
C1756      H1764   1.086       .  S
C1765      C1773   1.482       .  S
C1765      C1766   1.402       .  A
C1765      C1770   1.405       .  A
C1766      C1767   1.400       .  A
C1766      H1775   1.084       .  S
C1767      C1768   1.410       .  A
C1767      H1776   1.080       .  S
C1768      C1771   1.485       .  S
C1768      C1769   1.402       .  A
C1769      C1770   1.392       .  A
C1769      H1777   1.084       .  S
C1770      H1778   1.082       .  S
C1771      H1779   1.088       .  S
C1771      C1772   1.343       .  D
C1772      H1780   1.083       .  S
C1773      H1781   1.087       .  S
C1773      C1774   1.343       .  D
C1774      H1782   1.086       .  S
C1783      C1791   1.494       .  S
C1783      C1784   1.407       .  A
C1783      C1788   1.407       .  A
C1784      C1785   1.407       .  A
C1784      H1793   1.082       .  S
C1785      C1786   1.409       .  A
C1785      H1794   1.082       .  S
C1786      C1789   1.490       .  S
C1786      C1787   1.403       .  A
C1787      C1788   1.395       .  A
C1787      H1795   1.083       .  S
C1788      H1796   1.082       .  S
C1789      H1797   1.087       .  S
C1789      C1790   1.350       .  D
C1790      H1798   1.084       .  S
C1791      H1799   1.086       .  S
C1791      C1792   1.347       .  D
C1792      H1800   1.085       .  S
C1801      C1809   1.483       .  S
C1801      C1802   1.402       .  A
C1801      C1806   1.407       .  A
C1802      C1803   1.396       .  A
C1802      H1811   1.083       .  S
C1803      C1804   1.407       .  A
C1803      H1812   1.082       .  S
C1804      C1807   1.485       .  S
C1804      C1805   1.403       .  A
C1805      C1806   1.400       .  A
C1805      H1813   1.083   1_554  S
C1806      H1814   1.082   1_554  S
C1807      H1815   1.087       .  S
C1807      C1808   1.344       .  D
C1808      H1816   1.086       .  S
C1809      H1817   1.087       .  S
C1809      C1810   1.344       .  D
C1810      H1818   1.085       .  S
C1819      C1827   1.491       .  S
C1819      C1820   1.405       .  A
C1819      C1824   1.406       .  A
C1820      C1821   1.404       .  A
C1820      H1829   1.083       .  S
C1821      C1822   1.409       .  A
C1821      H1830   1.081       .  S
C1822      C1825   1.488       .  S
C1822      C1823   1.403       .  A
C1823      C1824   1.395       .  A
C1823      H1831   1.084       .  S
C1824      H1832   1.083       .  S
C1825      H1833   1.088       .  S
C1825      C1826   1.349       .  D
C1826      H1834   1.084       .  S
C1827      H1835   1.086       .  S
C1827      C1828   1.346       .  D
C1828      H1836   1.086       .  S
C1837      C1845   1.481       .  S
C1837      C1838   1.401       .  A
C1837      C1842   1.407       .  A
C1838      C1839   1.393       .  A
C1838      H1847   1.084       .  S
C1839      C1840   1.408       .  A
C1839      H1848   1.080       .  S
C1840      C1843   1.487       .  S
C1840      C1841   1.404       .  A
C1841      C1842   1.399       .  A
C1841      H1849   1.083   1_556  S
C1842      H1850   1.081   1_556  S
C1843      H1851   1.087       .  S
C1843      C1844   1.344       .  D
C1844      H1852   1.083       .  S
C1845      H1853   1.088       .  S
C1845      C1846   1.344       .  D
C1846      H1854   1.084       .  S
C1855      C1863   1.488       .  S
C1855      C1856   1.403       .  A
C1855      C1860   1.408       .  A
C1856      C1857   1.394       .  A
C1856      H1865   1.083       .  S
C1857      C1858   1.406       .  A
C1857      H1866   1.082       .  S
C1858      C1861   1.490       .  S
C1858      C1859   1.406       .  A
C1859      C1860   1.404       .  A
C1859      H1867   1.083       .  S
C1860      H1868   1.081       .  S
C1861      H1869   1.086       .  S
C1861      C1862   1.347       .  D
C1862      H1870   1.085       .  S
C1863      H1871   1.087       .  S
C1863      C1864   1.349       .  D
C1864      H1872   1.084       .  S
C1873      C1881   1.493       .  S
C1873      C1874   1.404       .  A
C1873      C1878   1.409       .  A
C1874      C1875   1.401       .  A
C1874      H1883   1.083       .  S
C1875      C1876   1.409       .  A
C1875      H1884   1.081       .  S
C1876      C1879   1.493       .  S
C1876      C1877   1.404       .  A
C1877      C1878   1.401       .  A
C1877      H1885   1.083       .  S
C1878      H1886   1.082       .  S
C1879      H1887   1.087       .  S
C1879      C1880   1.348       .  D
C1880      H1888   1.084       .  S
C1881      H1889   1.087       .  S
C1881      C1882   1.346       .  D
C1882      H1890   1.085       .  S
C1891      C1899   1.491       .  S
C1891      C1892   1.405       .  A
C1891      C1896   1.409       .  A
C1892      C1893   1.395       .  A
C1892      H1901   1.083       .  S
C1893      C1894   1.406       .  A
C1893      H1902   1.082       .  S
C1894      C1897   1.492       .  S
C1894      C1895   1.406       .  A
C1895      C1896   1.405       .  A
C1895      H1903   1.083       .  S
C1896      H1904   1.081       .  S
C1897      H1905   1.086       .  S
C1897      C1898   1.347       .  D
C1898      H1906   1.085       .  S
C1899      H1907   1.087       .  S
C1899      C1900   1.351       .  D
C1900      H1908   1.084       .  S
C1909      C1917   1.486       .  S
C1909      C1910   1.404       .  A
C1909      C1914   1.407       .  A
C1910      C1911   1.400       .  A
C1910      H1919   1.083       .  S
C1911      C1912   1.407       .  A
C1911      H1920   1.082       .  S
C1912      C1915   1.485       .  S
C1912      C1913   1.403       .  A
C1913      C1914   1.397       .  A
C1913      H1921   1.083       .  S
C1914      H1922   1.082       .  S
C1915      H1923   1.087       .  S
C1915      C1916   1.346       .  D
C1916      H1924   1.085       .  S
C1917      H1925   1.087       .  S
C1917      C1918   1.345       .  D
C1918      H1926   1.085       .  S
C1927      C1935   1.495       .  S
C1927      C1928   1.404       .  A
C1927      C1932   1.409       .  A
C1928      C1929   1.402       .  A
C1928      H1937   1.083       .  S
C1929      C1930   1.411       .  A
C1929      H1938   1.079       .  S
C1930      C1933   1.498       .  S
C1930      C1931   1.405       .  A
C1931      C1932   1.400       .  A
C1931      H1939   1.083       .  S
C1932      H1940   1.080       .  S
C1933      H1941   1.087       .  S
C1933      C1934   1.348       .  D
C1934      H1942   1.082       .  S
C1935      H1943   1.087       .  S
C1935      C1936   1.348       .  D
C1936      H1944   1.083       .  S
C1945      C1953   1.484       .  S
C1945      C1946   1.402       .  A
C1945      C1950   1.405       .  A
C1946      C1947   1.400       .  A
C1946      H1955   1.084       .  S
C1947      C1948   1.410       .  A
C1947      H1956   1.080       .  S
C1948      C1951   1.492       .  S
C1948      C1949   1.405       .  A
C1949      C1950   1.400       .  A
C1949      H1957   1.084       .  S
C1950      H1958   1.082       .  S
C1951      H1959   1.087       .  S
C1951      C1952   1.347       .  D
C1952      H1960   1.084       .  S
C1953      H1961   1.087       .  S
C1953      C1954   1.346       .  D
C1954      H1962   1.086       .  S
C1963      C1971   1.492       .  S
C1963      C1964   1.405       .  A
C1963      C1968   1.408       .  A
C1964      C1965   1.403       .  A
C1964      H1973   1.083       .  S
C1965      C1966   1.408       .  A
C1965      H1974   1.081       .  S
C1966      C1969   1.488       .  S
C1966      C1967   1.403       .  A
C1967      C1968   1.396       .  A
C1967      H1975   1.084       .  S
C1968      H1976   1.081       .  S
C1969      H1977   1.087       .  S
C1969      C1970   1.347       .  D
C1970      H1978   1.084       .  S
C1971      H1979   1.087       .  S
C1971      C1972   1.346       .  D
C1972      H1980   1.085       .  S
C1981      C1989   1.495       .  S
C1981      C1982   1.406       .  A
C1981      C1986   1.409       .  A
C1982      C1983   1.404       .  A
C1982      H1991   1.083       .  S
C1983      C1984   1.408       .  A
C1983      H1992   1.081       .  S
C1984      C1987   1.490       .  S
C1984      C1985   1.402       .  A
C1985      C1986   1.397       .  A
C1985      H1993   1.083       .  S
C1986      H1994   1.080       .  S
C1987      H1995   1.087       .  S
C1987      C1988   1.347       .  D
C1988      H1996   1.085       .  S
C1989      H1997   1.087       .  S
C1989      C1990   1.349       .  D
C1990      H1998   1.083       .  S
C1999      C2007   1.493       .  S
C1999      C2000   1.404       .  A
C1999      C2004   1.410       .  A
C2000      C2001   1.396       .  A
C2000      H2009   1.083       .  S
C2001      C2002   1.407       .  A
C2001      H2010   1.081       .  S
C2002      C2005   1.495       .  S
C2002      C2003   1.406       .  A
C2003      C2004   1.406       .  A
C2003      H2011   1.083       .  S
C2004      H2012   1.081       .  S
C2005      H2013   1.087       .  S
C2005      C2006   1.348       .  D
C2006      H2014   1.085       .  S
C2007      H2015   1.087       .  S
C2007      C2008   1.349       .  D
C2008      H2016   1.084       .  S
C2017      C2025   1.500       .  S
C2017      C2018   1.407       .  A
C2017      C2022   1.410       .  A
C2018      C2019   1.404       .  A
C2018      H2027   1.083       .  S
C2019      C2020   1.409       .  A
C2019      H2028   1.080       .  S
C2020      C2023   1.495       .  S
C2020      C2021   1.404       .  A
C2021      C2022   1.399       .  A
C2021      H2029   1.084       .  S
C2022      H2030   1.079       .  S
C2023      H2031   1.087       .  S
C2023      C2024   1.350       .  D
C2024      H2032   1.083       .  S
C2025      H2033   1.087       .  S
C2025      C2026   1.349       .  D
C2026      H2034   1.083       .  S
C2035      C2043   1.490       .  S
C2035      C2036   1.404       .  A
C2035      C2040   1.410       .  A
C2036      C2037   1.395       .  A
C2036      H2045   1.083       .  S
C2037      C2038   1.406       .  A
C2037      H2046   1.082       .  S
C2038      C2041   1.489       .  S
C2038      C2039   1.404       .  A
C2039      C2040   1.403       .  A
C2039      H2047   1.083       .  S
C2040      H2048   1.080       .  S
C2041      H2049   1.087       .  S
C2041      C2042   1.346       .  D
C2042      H2050   1.085       .  S
C2043      H2051   1.087       .  S
C2043      C2044   1.348       .  D
C2044      H2052   1.083       .  S
C2053      C2061   1.490       .  S
C2053      C2054   1.403       .  A
C2053      C2058   1.408       .  A
C2054      C2055   1.397       .  A
C2054      H2063   1.083       .  S
C2055      C2056   1.408       .  A
C2055      H2064   1.081       .  S
C2056      C2059   1.494       .  S
C2056      C2057   1.407       .  A
C2057      C2058   1.404       .  A
C2057      H2065   1.083       .  S
C2058      H2066   1.082       .  S
C2059      H2067   1.087       .  S
C2059      C2060   1.348       .  D
C2060      H2068   1.084       .  S
C2061      H2069   1.087       .  S
C2061      C2062   1.349       .  D
C2062      H2070   1.085       .  S
C2071      C2079   1.490       .  S
C2071      C2072   1.404       .  A
C2071      C2076   1.407       .  A
C2072      C2073   1.400       .  A
C2072      H2081   1.083       .  S
C2073      C2074   1.409       .  A
C2073      H2082   1.081       .  S
C2074      C2077   1.495       .  S
C2074      C2075   1.405       .  A
C2075      C2076   1.401       .  A
C2075      H2083   1.083       .  S
C2076      H2084   1.081       .  S
C2077      H2085   1.087       .  S
C2077      C2078   1.348       .  D
C2078      H2086   1.084       .  S
C2079      H2087   1.087       .  S
C2079      C2080   1.348       .  D
C2080      H2088   1.085       .  S
C2089      C2097   1.494       .  S
C2089      C2090   1.406       .  A
C2089      C2094   1.409       .  A
C2090      C2091   1.401       .  A
C2090      H2099   1.083       .  S
C2091      C2092   1.407       .  A
C2091      H2100   1.081       .  S
C2092      C2095   1.492       .  S
C2092      C2093   1.405       .  A
C2093      C2094   1.401       .  A
C2093      H2101   1.083       .  S
C2094      H2102   1.080       .  S
C2095      H2103   1.087       .  S
C2095      C2096   1.348       .  D
C2096      H2104   1.085       .  S
C2097      H2105   1.087       .  S
C2097      C2098   1.348       .  D
C2098      H2106   1.084       .  S
C2107      C2115   1.485       .  S
C2107      C2108   1.403       .  A
C2107      C2112   1.407       .  A
C2108      C2109   1.398       .  A
C2108      H2117   1.083   1_556  S
C2109      C2110   1.408       .  A
C2109      H2118   1.080   1_556  S
C2110      C2113   1.485       .  S
C2110      C2111   1.403       .  A
C2111      C2112   1.396       .  A
C2111      H2119   1.083       .  S
C2112      H2120   1.081       .  S
C2113      H2121   1.087       .  S
C2113      C2114   1.345       .  D
C2114      H2122   1.083       .  S
C2115      H2123   1.087       .  S
C2115      C2116   1.345       .  D
C2116      H2124   1.084       .  S
C2125      C2133   1.492       .  S
C2125      C2126   1.406       .  A
C2125      C2130   1.407       .  A
C2126      C2127   1.403       .  A
C2126      H2135   1.083       .  S
C2127      C2128   1.407       .  A
C2127      H2136   1.082       .  S
C2128      C2131   1.491       .  S
C2128      C2129   1.405       .  A
C2129      C2130   1.401       .  A
C2129      H2137   1.083       .  S
C2130      H2138   1.082       .  S
C2131      H2139   1.087       .  S
C2131      C2132   1.349       .  D
C2132      H2140   1.085       .  S
C2133      H2141   1.087       .  S
C2133      C2134   1.348       .  D
C2134      H2142   1.085       .  S
C2143      C2151   1.487       .  S
C2143      C2144   1.403   1_556  A
C2143      C2148   1.408       .  A
C2144      C2145   1.399       .  A
C2144      H2153   1.083       .  S
C2145      C2146   1.408   1_554  A
C2145      H2154   1.081       .  S
C2146      C2149   1.487       .  S
C2146      C2147   1.403       .  A
C2147      C2148   1.398       .  A
C2147      H2155   1.083       .  S
C2148      H2156   1.082       .  S
C2149      H2157   1.087       .  S
C2149      C2150   1.346   1_556  D
C2150      H2158   1.084       .  S
C2151      H2159   1.087       .  S
C2151      C2152   1.344       .  D
C2152      H2160   1.085       .  S
C2161      C2169   1.489       .  S
C2161      C2162   1.403       .  A
C2161      C2166   1.410       .  A
C2162      C2163   1.394       .  A
C2162      H2171   1.084       .  S
C2163      C2164   1.401       .  A
C2163      H2172   1.084       .  S
C2164      C2167   1.486       .  S
C2164      C2165   1.408       .  A
C2165      C2166   1.408       .  A
C2165      H2173   1.082       .  S
C2166      H2174   1.082       .  S
C2167      H2175   1.088       .  S
C2167      C2168   1.347       .  D
C2168      H2176   1.085       .  S
C2169      H2177   1.087       .  S
C2169      C2170   1.348       .  D
C2170      H2178   1.085       .  S
C2179      C2187   1.484       .  S
C2179      C2180   1.402       .  A
C2179      C2184   1.408   1_556  A
C2180      C2181   1.399       .  A
C2180      H2189   1.083       .  S
C2181      C2182   1.409       .  A
C2181      H2190   1.082       .  S
C2182      C2185   1.484       .  S
C2182      C2183   1.401   1_556  A
C2183      C2184   1.395       .  A
C2183      H2191   1.083       .  S
C2184      H2192   1.082       .  S
C2185      H2193   1.087   1_556  S
C2185      C2186   1.343       .  D
C2186      H2194   1.085       .  S
C2187      H2195   1.087       .  S
C2187      C2188   1.343       .  D
C2188      H2196   1.085   1_556  S
C2197      C2205   1.493       .  S
C2197      C2198   1.405       .  A
C2197      C2202   1.408       .  A
C2198      C2199   1.399       .  A
C2198      H2207   1.083       .  S
C2199      C2200   1.409       .  A
C2199      H2208   1.082       .  S
C2200      C2203   1.496       .  S
C2200      C2201   1.406       .  A
C2201      C2202   1.404       .  A
C2201      H2209   1.083       .  S
C2202      H2210   1.081       .  S
C2203      H2211   1.087       .  S
C2203      C2204   1.348       .  D
C2204      H2212   1.084       .  S
C2205      H2213   1.087       .  S
C2205      C2206   1.350       .  D
C2206      H2214   1.084       .  S
C2215      C2223   1.503       .  S
C2215      C2216   1.408       .  A
C2215      C2220   1.410       .  A
C2216      C2217   1.406       .  A
C2216      H2225   1.083       .  S
C2217      C2218   1.409       .  A
C2217      H2226   1.081       .  S
C2218      C2221   1.498       .  S
C2218      C2219   1.405       .  A
C2219      C2220   1.401       .  A
C2219      H2227   1.083       .  S
C2220      H2228   1.080       .  S
C2221      H2229   1.087       .  S
C2221      C2222   1.351       .  D
C2222      H2230   1.084       .  S
C2223      H2231   1.087       .  S
C2223      C2224   1.350       .  D
C2224      H2232   1.083       .  S
C2233      C2241   1.499       .  S
C2233      C2234   1.407       .  A
C2233      C2238   1.409       .  A
C2234      C2235   1.405       .  A
C2234      H2243   1.083       .  S
C2235      C2236   1.409       .  A
C2235      H2244   1.081       .  S
C2236      C2239   1.496       .  S
C2236      C2237   1.405       .  A
C2237      C2238   1.400       .  A
C2237      H2245   1.084       .  S
C2238      H2246   1.080       .  S
C2239      H2247   1.087       .  S
C2239      C2240   1.350       .  D
C2240      H2248   1.084       .  S
C2241      H2249   1.087       .  S
C2241      C2242   1.350       .  D
C2242      H2250   1.084       .  S
C2251      C2259   1.488       .  S
C2251      C2252   1.402       .  A
C2251      C2256   1.407       .  A
C2252      C2253   1.395       .  A
C2252      H2261   1.083       .  S
C2253      C2254   1.409       .  A
C2253      H2262   1.080       .  S
C2254      C2257   1.496       .  S
C2254      C2255   1.408       .  A
C2255      C2256   1.405       .  A
C2255      H2263   1.083       .  S
C2256      H2264   1.082       .  S
C2257      H2265   1.087       .  S
C2257      C2258   1.348       .  D
C2258      H2266   1.083       .  S
C2259      H2267   1.087       .  S
C2259      C2260   1.349       .  D
C2260      H2268   1.084       .  S
C2269      C2277   1.490       .  S
C2269      C2270   1.402       .  A
C2269      C2274   1.409       .  A
C2270      C2271   1.397       .  A
C2270      H2279   1.083       .  S
C2271      C2272   1.410       .  A
C2271      H2280   1.080       .  S
C2272      C2275   1.496       .  S
C2272      C2273   1.405       .  A
C2273      C2274   1.403       .  A
C2273      H2281   1.083       .  S
C2274      H2282   1.081       .  S
C2275      H2283   1.087       .  S
C2275      C2276   1.346       .  D
C2276      H2284   1.083       .  S
C2277      H2285   1.087       .  S
C2277      C2278   1.346       .  D
C2278      H2286   1.084       .  S
C2287      C2295   1.500       .  S
C2287      C2288   1.407       .  A
C2287      C2292   1.408       .  A
C2288      C2289   1.406       .  A
C2288      H2297   1.083       .  S
C2289      C2290   1.411       .  A
C2289      H2298   1.080       .  S
C2290      C2293   1.501       .  S
C2290      C2291   1.406       .  A
C2291      C2292   1.401       .  A
C2291      H2299   1.083       .  S
C2292      H2300   1.081       .  S
C2293      H2301   1.087       .  S
C2293      C2294   1.352       .  D
C2294      H2302   1.083       .  S
C2295      H2303   1.087       .  S
C2295      C2296   1.351       .  D
C2296      H2304   1.084       .  S
C2305      C2313   1.496       .  S
C2305      C2306   1.405       .  A
C2305      C2310   1.409       .  A
C2306      C2307   1.401       .  A
C2306      H2315   1.083       .  S
C2307      C2308   1.409       .  A
C2307      H2316   1.081       .  S
C2308      C2311   1.497       .  S
C2308      C2309   1.405       .  A
C2309      C2310   1.402       .  A
C2309      H2317   1.084       .  S
C2310      H2318   1.080       .  S
C2311      H2319   1.087       .  S
C2311      C2312   1.348       .  D
C2312      H2320   1.084       .  S
C2313      H2321   1.087       .  S
C2313      C2314   1.349       .  D
C2314      H2322   1.084       .  S
C2323      C2331   1.494       .  S
C2323      C2324   1.404       .  A
C2323      C2328   1.409       .  A
C2324      C2325   1.400       .  A
C2324      H2333   1.083       .  S
C2325      C2326   1.410       .  A
C2325      H2334   1.079       .  S
C2326      C2329   1.498       .  S
C2326      C2327   1.406       .  A
C2327      C2328   1.402       .  A
C2327      H2335   1.083       .  S
C2328      H2336   1.081       .  S
C2329      H2337   1.087       .  S
C2329      C2330   1.349       .  D
C2330      H2338   1.082       .  S
C2331      H2339   1.087       .  S
C2331      C2332   1.347       .  D
C2332      H2340   1.084       .  S
C2341      C2349   1.495       .  S
C2341      C2342   1.406       .  A
C2341      C2346   1.409       .  A
C2342      C2343   1.402       .  A
C2342      H2351   1.083       .  S
C2343      C2344   1.409       .  A
C2343      H2352   1.080       .  S
C2344      C2347   1.494       .  S
C2344      C2345   1.404       .  A
C2345      C2346   1.399       .  A
C2345      H2353   1.083       .  S
C2346      H2354   1.080       .  S
C2347      H2355   1.087       .  S
C2347      C2348   1.349       .  D
C2348      H2356   1.083       .  S
C2349      H2357   1.087       .  S
C2349      C2350   1.348       .  D
C2350      H2358   1.083       .  S
C2359      C2367   1.490       .  S
C2359      C2360   1.409       .  A
C2359      C2364   1.404       .  A
C2360      C2361   1.406       .  A
C2360      H2369   1.081       .  S
C2361      C2362   1.410       .  A
C2361      H2370   1.081       .  S
C2362      C2365   1.490       .  S
C2362      C2363   1.402       .  A
C2363      C2364   1.394       .  A
C2363      H2371   1.084       .  S
C2364      H2372   1.084       .  S
C2365      H2373   1.087       .  S
C2365      C2366   1.348       .  D
C2366      H2374   1.084       .  S
C2367      H2375   1.087       .  S
C2367      C2368   1.351       .  D
C2368      H2376   1.084       .  S
C2377      C2385   1.493       .  S
C2377      C2378   1.403       .  A
C2377      C2382   1.410       .  A
C2378      C2379   1.396       .  A
C2378      H2387   1.084       .  S
C2379      C2380   1.404       .  A
C2379      H2388   1.084       .  S
C2380      C2383   1.493       .  S
C2380      C2381   1.410       .  A
C2381      C2382   1.408       .  A
C2381      H2389   1.081       .  S
C2382      H2390   1.082       .  S
C2383      H2391   1.088       .  S
C2383      C2384   1.351       .  D
C2384      H2392   1.085       .  S
C2385      H2393   1.087       .  S
C2385      C2386   1.348       .  D
C2386      H2394   1.085       .  S
C2395      C2403   1.489       .  S
C2395      C2396   1.404       .  A
C2395      C2400   1.408       .  A
C2396      C2397   1.400       .  A
C2396      H2405   1.083       .  S
C2397      C2398   1.408       .  A
C2397      H2406   1.081       .  S
C2398      C2401   1.487       .  S
C2398      C2399   1.403       .  A
C2399      C2400   1.397       .  A
C2399      H2407   1.083   1_655  S
C2400      H2408   1.081   1_655  S
C2401      H2409   1.087       .  S
C2401      C2402   1.346       .  D
C2402      H2410   1.084       .  S
C2403      H2411   1.087       .  S
C2403      C2404   1.346       .  D
C2404      H2412   1.084       .  S
C2413      C2421   1.488       .  S
C2413      C2414   1.404       .  A
C2413      C2418   1.407       .  A
C2414      C2415   1.399       .  A
C2414      H2423   1.083       .  S
C2415      C2416   1.407       .  A
C2415      H2424   1.082       .  S
C2416      C2419   1.491       .  S
C2416      C2417   1.406       .  A
C2417      C2418   1.403       .  A
C2417      H2425   1.083       .  S
C2418      H2426   1.082       .  S
C2419      H2427   1.087       .  S
C2419      C2420   1.349       .  D
C2420      H2428   1.086       .  S
C2421      H2429   1.087       .  S
C2421      C2422   1.347       .  D
C2422      H2430   1.085       .  S
C2431      C2439   1.485       .  S
C2431      C2432   1.402       .  A
C2431      C2436   1.406       .  A
C2432      C2433   1.400       .  A
C2432      H2441   1.083   1_655  S
C2433      C2434   1.409       .  A
C2433      H2442   1.081   1_655  S
C2434      C2437   1.486       .  S
C2434      C2435   1.403       .  A
C2435      C2436   1.396       .  A
C2435      H2443   1.083       .  S
C2436      H2444   1.082       .  S
C2437      H2445   1.087       .  S
C2437      C2438   1.345       .  D
C2438      H2446   1.084       .  S
C2439      H2447   1.087       .  S
C2439      C2440   1.344       .  D
C2440      H2448   1.086       .  S
C2449      C2457   1.488       .  S
C2449      C2450   1.403       .  A
C2449      C2454   1.409       .  A
C2450      C2451   1.396       .  A
C2450      H2459   1.083       .  S
C2451      C2452   1.406       .  A
C2451      H2460   1.083       .  S
C2452      C2455   1.488       .  S
C2452      C2453   1.404       .  A
C2453      C2454   1.404       .  A
C2453      H2461   1.083       .  S
C2454      H2462   1.081       .  S
C2455      H2463   1.087       .  S
C2455      C2456   1.345       .  D
C2456      H2464   1.086       .  S
C2457      H2465   1.087       .  S
C2457      C2458   1.348       .  D
C2458      H2466   1.085       .  S
C2467      C2475   1.481       .  S
C2467      C2468   1.401   1_565  A
C2467      C2472   1.407       .  A
C2468      C2469   1.395       .  A
C2468      H2477   1.084       .  S
C2469      C2470   1.407   1_545  A
C2469      H2478   1.081       .  S
C2470      C2473   1.483       .  S
C2470      C2471   1.404       .  A
C2471      C2472   1.398       .  A
C2471      H2479   1.084       .  S
C2472      H2480   1.082       .  S
C2473      H2481   1.087       .  S
C2473      C2474   1.345   1_565  D
C2474      H2482   1.084       .  S
C2475      H2483   1.087       .  S
C2475      C2476   1.342       .  D
C2476      H2484   1.085       .  S
C2485      C2493   1.494       .  S
C2485      C2486   1.406       .  A
C2485      C2490   1.408       .  A
C2486      C2487   1.404       .  A
C2486      H2495   1.083       .  S
C2487      C2488   1.407       .  A
C2487      H2496   1.082       .  S
C2488      C2491   1.489       .  S
C2488      C2489   1.403       .  A
C2489      C2490   1.397       .  A
C2489      H2497   1.083       .  S
C2490      H2498   1.081       .  S
C2491      H2499   1.087       .  S
C2491      C2492   1.349       .  D
C2492      H2500   1.085       .  S
C2493      H2501   1.087       .  S
C2493      C2494   1.347       .  D
C2494      H2502   1.084       .  S
C2503      C2511   1.481       .  S
C2503      C2504   1.403   1_565  A
C2503      C2508   1.406       .  A
C2504      C2505   1.399       .  A
C2504      H2513   1.083       .  S
C2505      C2506   1.406   1_545  A
C2505      H2514   1.082       .  S
C2506      C2509   1.478   1_565  S
C2506      C2507   1.401       .  A
C2507      C2508   1.393       .  A
C2507      H2515   1.084       .  S
C2508      H2516   1.082       .  S
C2509      H2517   1.088   1_545  S
C2509      C2510   1.343       .  D
C2510      H2518   1.085       .  S
C2511      H2519   1.087   1_565  S
C2511      C2512   1.343       .  D
C2512      H2520   1.086       .  S
C2521      C2529   1.487       .  S
C2521      C2522   1.403       .  A
C2521      C2526   1.407       .  A
C2522      C2523   1.398       .  A
C2522      H2531   1.084       .  S
C2523      C2524   1.407       .  A
C2523      H2532   1.081       .  S
C2524      C2527   1.488       .  S
C2524      C2525   1.404       .  A
C2525      C2526   1.401       .  A
C2525      H2533   1.083       .  S
C2526      H2534   1.081       .  S
C2527      H2535   1.087       .  S
C2527      C2528   1.347       .  D
C2528      H2536   1.085       .  S
C2529      H2537   1.087       .  S
C2529      C2530   1.346       .  D
C2530      H2538   1.085       .  S
C2539      C2547   1.486       .  S
C2539      C2540   1.403       .  A
C2539      C2544   1.406       .  A
C2540      C2541   1.399       .  A
C2540      H2549   1.084       .  S
C2541      C2542   1.410       .  A
C2541      H2550   1.080       .  S
C2542      C2545   1.492       .  S
C2542      C2543   1.405       .  A
C2543      C2544   1.399       .  A
C2543      H2551   1.084       .  S
C2544      H2552   1.081       .  S
C2545      H2553   1.087       .  S
C2545      C2546   1.346       .  D
C2546      H2554   1.083       .  S
C2547      H2555   1.088       .  S
C2547      C2548   1.347       .  D
C2548      H2556   1.085       .  S
C2557      C2565   1.497       .  S
C2557      C2558   1.406       .  A
C2557      C2562   1.408       .  A
C2558      C2559   1.406       .  A
C2558      H2567   1.083       .  S
C2559      C2560   1.409       .  A
C2559      H2568   1.081       .  S
C2560      C2563   1.493       .  S
C2560      C2561   1.404       .  A
C2561      C2562   1.398       .  A
C2561      H2569   1.084       .  S
C2562      H2570   1.081       .  S
C2563      H2571   1.087       .  S
C2563      C2564   1.349       .  D
C2564      H2572   1.084       .  S
C2565      H2573   1.087       .  S
C2565      C2566   1.348       .  D
C2566      H2574   1.084       .  S
C2575      C2583   1.497       .  S
C2575      C2576   1.404       .  A
C2575      C2580   1.410       .  A
C2576      C2577   1.400       .  A
C2576      H2585   1.083       .  S
C2577      C2578   1.409       .  A
C2577      H2586   1.080       .  S
C2578      C2581   1.499       .  S
C2578      C2579   1.406       .  A
C2579      C2580   1.404       .  A
C2579      H2587   1.083       .  S
C2580      H2588   1.080       .  S
C2581      H2589   1.087       .  S
C2581      C2582   1.350       .  D
C2582      H2590   1.083       .  S
C2583      H2591   1.087       .  S
C2583      C2584   1.349       .  D
C2584      H2592   1.083       .  S
C2593      C2601   1.498       .  S
C2593      C2594   1.407       .  A
C2593      C2598   1.410       .  A
C2594      C2595   1.404       .  A
C2594      H2603   1.083       .  S
C2595      C2596   1.408       .  A
C2595      H2604   1.082       .  S
C2596      C2599   1.492       .  S
C2596      C2597   1.403       .  A
C2597      C2598   1.400       .  A
C2597      H2605   1.083       .  S
C2598      H2606   1.080       .  S
C2599      H2607   1.087       .  S
C2599      C2600   1.348       .  D
C2600      H2608   1.085       .  S
C2601      H2609   1.087       .  S
C2601      C2602   1.349       .  D
C2602      H2610   1.083       .  S
C2611      C2619   1.486       .  S
C2611      C2612   1.402       .  A
C2611      C2616   1.408       .  A
C2612      C2613   1.394       .  A
C2612      H2621   1.084       .  S
C2613      C2614   1.408       .  A
C2613      H2622   1.081       .  S
C2614      C2617   1.494       .  S
C2614      C2615   1.407       .  A
C2615      C2616   1.406       .  A
C2615      H2623   1.083       .  S
C2616      H2624   1.082       .  S
C2617      H2625   1.086       .  S
C2617      C2618   1.347       .  D
C2618      H2626   1.085       .  S
C2619      H2627   1.087       .  S
C2619      C2620   1.348       .  D
C2620      H2628   1.085       .  S
C2629      C2637   1.496       .  S
C2629      C2630   1.406       .  A
C2629      C2634   1.408       .  A
C2630      C2631   1.404       .  A
C2630      H2639   1.084       .  S
C2631      C2632   1.410       .  A
C2631      H2640   1.080       .  S
C2632      C2635   1.499       .  S
C2632      C2633   1.406       .  A
C2633      C2634   1.400       .  A
C2633      H2641   1.084       .  S
C2634      H2642   1.081       .  S
C2635      H2643   1.087       .  S
C2635      C2636   1.351       .  D
C2636      H2644   1.083       .  S
C2637      H2645   1.087       .  S
C2637      C2638   1.349       .  D
C2638      H2646   1.085       .  S
C2647      C2655   1.490       .  S
C2647      C2648   1.404       .  A
C2647      C2652   1.409       .  A
C2648      C2649   1.395       .  A
C2648      H2657   1.083       .  S
C2649      C2650   1.406       .  A
C2649      H2658   1.082       .  S
C2650      C2653   1.492       .  S
C2650      C2651   1.406       .  A
C2651      C2652   1.406       .  A
C2651      H2659   1.083       .  S
C2652      H2660   1.081       .  S
C2653      H2661   1.086       .  S
C2653      C2654   1.347       .  D
C2654      H2662   1.086       .  S
C2655      H2663   1.087       .  S
C2655      C2656   1.349       .  D
C2656      H2664   1.084       .  S
C2665      C2673   1.492       .  S
C2665      C2666   1.405       .  A
C2665      C2670   1.409       .  A
C2666      C2667   1.397       .  A
C2666      H2675   1.084       .  S
C2667      C2668   1.406       .  A
C2667      H2676   1.082       .  S
C2668      C2671   1.489       .  S
C2668      C2669   1.404       .  A
C2669      C2670   1.402       .  A
C2669      H2677   1.083       .  S
C2670      H2678   1.080       .  S
C2671      H2679   1.087       .  S
C2671      C2672   1.346       .  D
C2672      H2680   1.085       .  S
C2673      H2681   1.088       .  S
C2673      C2674   1.349       .  D
C2674      H2682   1.084       .  S
C2683      C2691   1.500       .  S
C2683      C2684   1.406       .  A
C2683      C2688   1.410       .  A
C2684      C2685   1.403       .  A
C2684      H2693   1.083       .  S
C2685      C2686   1.410       .  A
C2685      H2694   1.080       .  S
C2686      C2689   1.502       .  S
C2686      C2687   1.406       .  A
C2687      C2688   1.404       .  A
C2687      H2695   1.083       .  S
C2688      H2696   1.081       .  S
C2689      H2697   1.087       .  S
C2689      C2690   1.350       .  D
C2690      H2698   1.084       .  S
C2691      H2699   1.087       .  S
C2691      C2692   1.351       .  D
C2692      H2700   1.084       .  S
C2701      C2709   1.493       .  S
C2701      C2702   1.406       .  A
C2701      C2706   1.408       .  A
C2702      C2703   1.405       .  A
C2702      H2711   1.083       .  S
C2703      C2704   1.408       .  A
C2703      H2712   1.082       .  S
C2704      C2707   1.489       .  S
C2704      C2705   1.402       .  A
C2705      C2706   1.397       .  A
C2705      H2713   1.083       .  S
C2706      H2714   1.081       .  S
C2707      H2715   1.087       .  S
C2707      C2708   1.347       .  D
C2708      H2716   1.085       .  S
C2709      H2717   1.087       .  S
C2709      C2710   1.348       .  D
C2710      H2718   1.085       .  S
C2719      C2727   1.492       .  S
C2719      C2720   1.402       .  A
C2719      C2724   1.409       .  A
C2720      C2721   1.396       .  A
C2720      H2729   1.083       .  S
C2721      C2722   1.409       .  A
C2721      H2730   1.081       .  S
C2722      C2725   1.500       .  S
C2722      C2723   1.408       .  A
C2723      C2724   1.407       .  A
C2723      H2731   1.083       .  S
C2724      H2732   1.081       .  S
C2725      H2733   1.086       .  S
C2725      C2726   1.350       .  D
C2726      H2734   1.083       .  S
C2727      H2735   1.087       .  S
C2727      C2728   1.348       .  D
C2728      H2736   1.084       .  S
C2737      C2745   1.496       .  S
C2737      C2738   1.406       .  A
C2737      C2742   1.409       .  A
C2738      C2739   1.403       .  A
C2738      H2747   1.083       .  S
C2739      C2740   1.408       .  A
C2739      H2748   1.082       .  S
C2740      C2743   1.492       .  S
C2740      C2741   1.404       .  A
C2741      C2742   1.399       .  A
C2741      H2749   1.083       .  S
C2742      H2750   1.081       .  S
C2743      H2751   1.087       .  S
C2743      C2744   1.349       .  D
C2744      H2752   1.084       .  S
C2745      H2753   1.087       .  S
C2745      C2746   1.348       .  D
C2746      H2754   1.084       .  S
C2755      C2763   1.493       .  S
C2755      C2756   1.404       .  A
C2755      C2760   1.408       .  A
C2756      C2757   1.400       .  A
C2756      H2765   1.083       .  S
C2757      C2758   1.407       .  A
C2757      H2766   1.082       .  S
C2758      C2761   1.497       .  S
C2758      C2759   1.408       .  A
C2759      C2760   1.407       .  A
C2759      H2767   1.083       .  S
C2760      H2768   1.083       .  S
C2761      H2769   1.087       .  S
C2761      C2762   1.350       .  D
C2762      H2770   1.086       .  S
C2763      H2771   1.087       .  S
C2763      C2764   1.350       .  D
C2764      H2772   1.086       .  S
C2773      C2781   1.488   1_455  S
C2773      C2774   1.405   1_455  A
C2773      C2778   1.407       .  A
C2774      C2775   1.402       .  A
C2774      H2783   1.083       .  S
C2775      C2776   1.408   1_655  A
C2775      H2784   1.082       .  S
C2776      C2779   1.484       .  S
C2776      C2777   1.402       .  A
C2777      C2778   1.396       .  A
C2777      H2785   1.083       .  S
C2778      H2786   1.082       .  S
C2779      H2787   1.087       .  S
C2779      C2780   1.346       .  D
C2780      H2788   1.085       .  S
C2781      H2789   1.087       .  S
C2781      C2782   1.346   1_655  D
C2782      H2790   1.085       .  S
C2791      C2799   1.491       .  S
C2791      C2792   1.405       .  A
C2791      C2796   1.408       .  A
C2792      C2793   1.401       .  A
C2792      H2801   1.083       .  S
C2793      C2794   1.406       .  A
C2793      H2802   1.083       .  S
C2794      C2797   1.487       .  S
C2794      C2795   1.404       .  A
C2795      C2796   1.400       .  A
C2795      H2803   1.083       .  S
C2796      H2804   1.082       .  S
C2797      H2805   1.087       .  S
C2797      C2798   1.348       .  D
C2798      H2806   1.085       .  S
C2799      H2807   1.087       .  S
C2799      C2800   1.348       .  D
C2800      H2808   1.085       .  S
C2809      C2817   1.480       .  S
C2809      C2810   1.401   1_455  A
C2809      C2814   1.407       .  A
C2810      C2811   1.395       .  A
C2810      H2819   1.083       .  S
C2811      C2812   1.407   1_655  A
C2811      H2820   1.082       .  S
C2812      C2815   1.480   1_455  S
C2812      C2813   1.402       .  A
C2813      C2814   1.396       .  A
C2813      H2821   1.083       .  S
C2814      H2822   1.082       .  S
C2815      H2823   1.087   1_655  S
C2815      C2816   1.343       .  D
C2816      H2824   1.085       .  S
C2817      H2825   1.087   1_455  S
C2817      C2818   1.342       .  D
C2818      H2826   1.085       .  S
C2827      C2835   1.496       .  S
C2827      C2828   1.408       .  A
C2827      C2832   1.406       .  A
C2828      C2829   1.408       .  A
C2828      H2837   1.083       .  S
C2829      C2830   1.409       .  A
C2829      H2838   1.082       .  S
C2830      C2833   1.491       .  S
C2830      C2831   1.403       .  A
C2831      C2832   1.395       .  A
C2831      H2839   1.083       .  S
C2832      H2840   1.082       .  S
C2833      H2841   1.087       .  S
C2833      C2834   1.350       .  D
C2834      H2842   1.084       .  S
C2835      H2843   1.086       .  S
C2835      C2836   1.350       .  D
C2836      H2844   1.085       .  S
C2845      C2853   1.488       .  S
C2845      C2846   1.403       .  A
C2845      C2850   1.409       .  A
C2846      C2847   1.397       .  A
C2846      H2855   1.083       .  S
C2847      C2848   1.407       .  A
C2847      H2856   1.080       .  S
C2848      C2851   1.486       .  S
C2848      C2849   1.403       .  A
C2849      C2850   1.397       .  A
C2849      H2857   1.084       .  S
C2850      H2858   1.080       .  S
C2851      H2859   1.087       .  S
C2851      C2852   1.346       .  D
C2852      H2860   1.084       .  S
C2853      H2861   1.087       .  S
C2853      C2854   1.345       .  D
C2854      H2862   1.083       .  S
C2863      C2871   1.495       .  S
C2863      C2864   1.406       .  A
C2863      C2868   1.407       .  A
C2864      C2865   1.406       .  A
C2864      H2873   1.083       .  S
C2865      C2866   1.410       .  A
C2865      H2874   1.081       .  S
C2866      C2869   1.493       .  S
C2866      C2867   1.403       .  A
C2867      C2868   1.396       .  A
C2867      H2875   1.083       .  S
C2868      H2876   1.081       .  S
C2869      H2877   1.087       .  S
C2869      C2870   1.348       .  D
C2870      H2878   1.084       .  S
C2871      H2879   1.087       .  S
C2871      C2872   1.348       .  D
C2872      H2880   1.085       .  S
C2881      C2889   1.495       .  S
C2881      C2882   1.406       .  A
C2881      C2886   1.409       .  A
C2882      C2883   1.400       .  A
C2882      H2891   1.083       .  S
C2883      C2884   1.407       .  A
C2883      H2892   1.082       .  S
C2884      C2887   1.493       .  S
C2884      C2885   1.405       .  A
C2885      C2886   1.404       .  A
C2885      H2893   1.083       .  S
C2886      H2894   1.081       .  S
C2887      H2895   1.087       .  S
C2887      C2888   1.347       .  D
C2888      H2896   1.086       .  S
C2889      H2897   1.087       .  S
C2889      C2890   1.351       .  D
C2890      H2898   1.084       .  S
C2899      C2907   1.502       .  S
C2899      C2900   1.406       .  A
C2899      C2904   1.411       .  A
C2900      C2901   1.403       .  A
C2900      H2909   1.083       .  S
C2901      C2902   1.408       .  A
C2901      H2910   1.082       .  S
C2902      C2905   1.499       .  S
C2902      C2903   1.405       .  A
C2903      C2904   1.405       .  A
C2903      H2911   1.083       .  S
C2904      H2912   1.080       .  S
C2905      H2913   1.086       .  S
C2905      C2906   1.351       .  D
C2906      H2914   1.084       .  S
C2907      H2915   1.087       .  S
C2907      C2908   1.350       .  D
C2908      H2916   1.083       .  S
C2917      C2925   1.489       .  S
C2917      C2918   1.403       .  A
C2917      C2922   1.407       .  A
C2918      C2919   1.398       .  A
C2918      H2927   1.083       .  S
C2919      C2920   1.408       .  A
C2919      H2928   1.081       .  S
C2920      C2923   1.492       .  S
C2920      C2921   1.406       .  A
C2921      C2922   1.403       .  A
C2921      H2929   1.083       .  S
C2922      H2930   1.082       .  S
C2923      H2931   1.087       .  S
C2923      C2924   1.348       .  D
C2924      H2932   1.085       .  S
C2925      H2933   1.087       .  S
C2925      C2926   1.347       .  D
C2926      H2934   1.085       .  S
C2935      C2943   1.500       .  S
C2935      C2936   1.406       .  A
C2935      C2940   1.408       .  A
C2936      C2937   1.406       .  A
C2936      H2945   1.083       .  S
C2937      C2938   1.411       .  A
C2937      H2946   1.080       .  S
C2938      C2941   1.502       .  S
C2938      C2939   1.406       .  A
C2939      C2940   1.402       .  A
C2939      H2947   1.083       .  S
C2940      H2948   1.081       .  S
C2941      H2949   1.087       .  S
C2941      C2942   1.351       .  D
C2942      H2950   1.082       .  S
C2943      H2951   1.086       .  S
C2943      C2944   1.350       .  D
C2944      H2952   1.085       .  S
C2953      C2961   1.487       .  S
C2953      C2954   1.403       .  A
C2953      C2958   1.408       .  A
C2954      C2955   1.396       .  A
C2954      H2963   1.084       .  S
C2955      C2956   1.407       .  A
C2955      H2964   1.082       .  S
C2956      C2959   1.490       .  S
C2956      C2957   1.405       .  A
C2957      C2958   1.404       .  A
C2957      H2965   1.083       .  S
C2958      H2966   1.082       .  S
C2959      H2967   1.087       .  S
C2959      C2960   1.347       .  D
C2960      H2968   1.086       .  S
C2961      H2969   1.088       .  S
C2961      C2962   1.348       .  D
C2962      H2970   1.085       .  S
C2971      C2979   1.497       .  S
C2971      C2972   1.406       .  A
C2971      C2976   1.409       .  A
C2972      C2973   1.404       .  A
C2972      H2981   1.083       .  S
C2973      C2974   1.409       .  A
C2973      H2982   1.081       .  S
C2974      C2977   1.495       .  S
C2974      C2975   1.404       .  A
C2975      C2976   1.399       .  A
C2975      H2983   1.083       .  S
C2976      H2984   1.081       .  S
C2977      H2985   1.087       .  S
C2977      C2978   1.350       .  D
C2978      H2986   1.083       .  S
C2979      H2987   1.087       .  S
C2979      C2980   1.349       .  D
C2980      H2988   1.083       .  S
C2989      C2997   1.489       .  S
C2989      C2990   1.404       .  A
C2989      C2994   1.407       .  A
C2990      C2991   1.403       .  A
C2990      H2999   1.083       .  S
C2991      C2992   1.410       .  A
C2991      H3000   1.081       .  S
C2992      C2995   1.491       .  S
C2992      C2993   1.403       .  A
C2993      C2994   1.397       .  A
C2993      H3001   1.083       .  S
C2994      H3002   1.082       .  S
C2995      H3003   1.087       .  S
C2995      C2996   1.347       .  D
C2996      H3004   1.084       .  S
C2997      H3005   1.087       .  S
C2997      C2998   1.346       .  D
C2998      H3006   1.085       .  S
C3007      C3015   1.485       .  S
C3007      C3008   1.403       .  A
C3007      C3012   1.408       .  A
C3008      C3009   1.392       .  A
C3008      H3017   1.084       .  S
C3009      C3010   1.404       .  A
C3009      H3018   1.082       .  S
C3010      C3013   1.489       .  S
C3010      C3011   1.407       .  A
C3011      C3012   1.406       .  A
C3011      H3019   1.083       .  S
C3012      H3020   1.081       .  S
C3013      H3021   1.087       .  S
C3013      C3014   1.348       .  D
C3014      H3022   1.086       .  S
C3015      H3023   1.088       .  S
C3015      C3016   1.348       .  D
C3016      H3024   1.085       .  S
C3025      C3033   1.494       .  S
C3025      C3026   1.404       .  A
C3025      C3030   1.408       .  A
C3026      C3027   1.402       .  A
C3026      H3035   1.083       .  S
C3027      C3028   1.410       .  A
C3027      H3036   1.080       .  S
C3028      C3031   1.497       .  S
C3028      C3029   1.405       .  A
C3029      C3030   1.400       .  A
C3029      H3037   1.083       .  S
C3030      H3038   1.081       .  S
C3031      H3039   1.087       .  S
C3031      C3032   1.350       .  D
C3032      H3040   1.083       .  S
C3033      H3041   1.087       .  S
C3033      C3034   1.347       .  D
C3034      H3042   1.085       .  S
C3043      C3051   1.490       .  S
C3043      C3044   1.403       .  A
C3043      C3048   1.409       .  A
C3044      C3045   1.395       .  A
C3044      H3053   1.084       .  S
C3045      C3046   1.407       .  A
C3045      H3054   1.082       .  S
C3046      C3049   1.495       .  S
C3046      C3047   1.407       .  A
C3047      C3048   1.408       .  A
C3047      H3055   1.083       .  S
C3048      H3056   1.082       .  S
C3049      H3057   1.086       .  S
C3049      C3050   1.347       .  D
C3050      H3058   1.086       .  S
C3051      H3059   1.088       .  S
C3051      C3052   1.350       .  D
C3052      H3060   1.085       .  S
C3061      C3069   1.503       .  S
C3061      C3062   1.408       .  A
C3061      C3066   1.410       .  A
C3062      C3063   1.405       .  A
C3062      H3071   1.083       .  S
C3063      C3064   1.408       .  A
C3063      H3072   1.081       .  S
C3064      C3067   1.498       .  S
C3064      C3065   1.405       .  A
C3065      C3066   1.402       .  A
C3065      H3073   1.083       .  S
C3066      H3074   1.080       .  S
C3067      H3075   1.087       .  S
C3067      C3068   1.350       .  D
C3068      H3076   1.084       .  S
C3069      H3077   1.087       .  S
C3069      C3070   1.352       .  D
C3070      H3078   1.083       .  S
C3079      C3087   1.499       .  S
C3079      C3080   1.406       .  A
C3079      C3084   1.409       .  A
C3080      C3081   1.406       .  A
C3080      H3089   1.083       .  S
C3081      C3082   1.410       .  A
C3081      H3090   1.081       .  S
C3082      C3085   1.498       .  S
C3082      C3083   1.405       .  A
C3083      C3084   1.399       .  A
C3083      H3091   1.083       .  S
C3084      H3092   1.081       .  S
C3085      H3093   1.086       .  S
C3085      C3086   1.350       .  D
C3086      H3094   1.083       .  S
C3087      H3095   1.086       .  S
C3087      C3088   1.349       .  D
C3088      H3096   1.084       .  S
C3097      C3105   1.488       .  S
C3097      C3098   1.403       .  A
C3097      C3102   1.407       .  A
C3098      C3099   1.395       .  A
C3098      H3107   1.084       .  S
C3099      C3100   1.407       .  A
C3099      H3108   1.081       .  S
C3100      C3103   1.495       .  S
C3100      C3101   1.408       .  A
C3101      C3102   1.407       .  A
C3101      H3109   1.083       .  S
C3102      H3110   1.081       .  S
C3103      H3111   1.087       .  S
C3103      C3104   1.349       .  D
C3104      H3112   1.084       .  S
C3105      H3113   1.088       .  S
C3105      C3106   1.350       .  D
C3106      H3114   1.085       .  S
C3115      C3123   1.488       .  S
C3115      C3116   1.405       .  A
C3115      C3120   1.406   1_565  A
C3116      C3117   1.403       .  A
C3116      H3125   1.083       .  S
C3117      C3118   1.409   1_565  A
C3117      H3126   1.081       .  S
C3118      C3121   1.487   1_545  S
C3118      C3119   1.402       .  A
C3119      C3120   1.393       .  A
C3119      H3127   1.083       .  S
C3120      H3128   1.082       .  S
C3121      H3129   1.087   1_565  S
C3121      C3122   1.346       .  D
C3122      H3130   1.083       .  S
C3123      H3131   1.087       .  S
C3123      C3124   1.346       .  D
C3124      H3132   1.084       .  S
C3133      C3141   1.487       .  S
C3133      C3134   1.402       .  A
C3133      C3138   1.408       .  A
C3134      C3135   1.397       .  A
C3134      H3143   1.083       .  S
C3135      C3136   1.408       .  A
C3135      H3144   1.082       .  S
C3136      C3139   1.494       .  S
C3136      C3137   1.406       .  A
C3137      C3138   1.405       .  A
C3137      H3145   1.083       .  S
C3138      H3146   1.082       .  S
C3139      H3147   1.087       .  S
C3139      C3140   1.347       .  D
C3140      H3148   1.086       .  S
C3141      H3149   1.087       .  S
C3141      C3142   1.346       .  D
C3142      H3150   1.086       .  S
C3151      C3159   1.484       .  S
C3151      C3152   1.401   1_565  A
C3151      C3156   1.408       .  A
C3152      C3153   1.396       .  A
C3152      H3161   1.083       .  S
C3153      C3154   1.409       .  A
C3153      H3162   1.080       .  S
C3154      C3157   1.489       .  S
C3154      C3155   1.404   1_545  A
C3155      C3156   1.398       .  A
C3155      H3163   1.083       .  S
C3156      H3164   1.081       .  S
C3157      H3165   1.087       .  S
C3157      C3158   1.345       .  D
C3158      H3166   1.083       .  S
C3159      H3167   1.088       .  S
C3159      C3160   1.343       .  D
C3160      H3168   1.085       .  S
C3169      C3177   1.490       .  S
C3169      C3170   1.404       .  A
C3169      C3174   1.409       .  A
C3170      C3171   1.396       .  A
C3170      H3179   1.083       .  S
C3171      C3172   1.406       .  A
C3171      H3180   1.083       .  S
C3172      C3175   1.493       .  S
C3172      C3173   1.406       .  A
C3173      C3174   1.406       .  A
C3173      H3181   1.083       .  S
C3174      H3182   1.081       .  S
C3175      H3183   1.086       .  S
C3175      C3176   1.347       .  D
C3176      H3184   1.086       .  S
C3177      H3185   1.087       .  S
C3177      C3178   1.350       .  D
C3178      H3186   1.084       .  S
C3187      C3195   1.487       .  S
C3187      C3188   1.402       .  A
C3187      C3192   1.409   1_565  A
C3188      C3189   1.395       .  A
C3188      H3197   1.083       .  S
C3189      C3190   1.408       .  A
C3189      H3198   1.081       .  S
C3190      C3193   1.489       .  S
C3190      C3191   1.404   1_565  A
C3191      C3192   1.401       .  A
C3191      H3199   1.084       .  S
C3192      H3200   1.080       .  S
C3193      H3201   1.087       .  S
C3193      C3194   1.345       .  D
C3194      H3202   1.084       .  S
C3195      H3203   1.087       .  S
C3195      C3196   1.345   1_565  D
C3196      H3204   1.083       .  S
C3205      C3213   1.486       .  S
C3205      C3206   1.404       .  A
C3205      C3210   1.407       .  A
C3206      C3207   1.401       .  A
C3206      H3215   1.083       .  S
C3207      C3208   1.409       .  A
C3207      H3216   1.082       .  S
C3208      C3211   1.488       .  S
C3208      C3209   1.403       .  A
C3209      C3210   1.396       .  A
C3209      H3217   1.083       .  S
C3210      H3218   1.082       .  S
C3211      H3219   1.087       .  S
C3211      C3212   1.345       .  D
C3212      H3220   1.085       .  S
C3213      H3221   1.087       .  S
C3213      C3214   1.345       .  D
C3214      H3222   1.086       .  S
C3223      C3231   1.491       .  S
C3223      C3224   1.405       .  A
C3223      C3228   1.409       .  A
C3224      C3225   1.397       .  A
C3224      H3233   1.083       .  S
C3225      C3226   1.406       .  A
C3225      H3234   1.082       .  S
C3226      C3229   1.489       .  S
C3226      C3227   1.404       .  A
C3227      C3228   1.403       .  A
C3227      H3235   1.083       .  S
C3228      H3236   1.081       .  S
C3229      H3237   1.087       .  S
C3229      C3230   1.346       .  D
C3230      H3238   1.086       .  S
C3231      H3239   1.087       .  S
C3231      C3232   1.350       .  D
C3232      H3240   1.083       .  S
C3241      C3249   1.487       .  S
C3241      C3242   1.400       .  A
C3241      C3246   1.408       .  A
C3242      C3243   1.396       .  A
C3242      H3251   1.083       .  S
C3243      C3244   1.411       .  A
C3243      H3252   1.079       .  S
C3244      C3247   1.499       .  S
C3244      C3245   1.407       .  A
C3245      C3246   1.404       .  A
C3245      H3253   1.083       .  S
C3246      H3254   1.082       .  S
C3247      H3255   1.087       .  S
C3247      C3248   1.348       .  D
C3248      H3256   1.082       .  S
C3249      H3257   1.087       .  S
C3249      C3250   1.345       .  D
C3250      H3258   1.085       .  S
C3259      C3267   1.499       .  S
C3259      C3260   1.408       .  A
C3259      C3264   1.407       .  A
C3260      C3261   1.408       .  A
C3260      H3269   1.083       .  S
C3261      C3262   1.410       .  A
C3261      H3270   1.081       .  S
C3262      C3265   1.496       .  S
C3262      C3263   1.404       .  A
C3263      C3264   1.396       .  A
C3263      H3271   1.083       .  S
C3264      H3272   1.081       .  S
C3265      H3273   1.087       .  S
C3265      C3266   1.350       .  D
C3266      H3274   1.083       .  S
C3267      H3275   1.086       .  S
C3267      C3268   1.351       .  D
C3268      H3276   1.084       .  S
C3277      C3285   1.489       .  S
C3277      C3278   1.404       .  A
C3277      C3282   1.408       .  A
C3278      C3279   1.396       .  A
C3278      H3287   1.084       .  S
C3279      C3280   1.407       .  A
C3279      H3288   1.082       .  S
C3280      C3283   1.491       .  S
C3280      C3281   1.405       .  A
C3281      C3282   1.404       .  A
C3281      H3289   1.083       .  S
C3282      H3290   1.081       .  S
C3283      H3291   1.087       .  S
C3283      C3284   1.346       .  D
C3284      H3292   1.086       .  S
C3285      H3293   1.088       .  S
C3285      C3286   1.349       .  D
C3286      H3294   1.085       .  S
C3295      C3303   1.491       .  S
C3295      C3296   1.406       .  A
C3295      C3300   1.407       .  A
C3296      C3297   1.404       .  A
C3296      H3305   1.083       .  S
C3297      C3298   1.407       .  A
C3297      H3306   1.082       .  S
C3298      C3301   1.488       .  S
C3298      C3299   1.404       .  A
C3299      C3300   1.398       .  A
C3299      H3307   1.083       .  S
C3300      H3308   1.082       .  S
C3301      H3309   1.087       .  S
C3301      C3302   1.348       .  D
C3302      H3310   1.085       .  S
C3303      H3311   1.087       .  S
C3303      C3304   1.348       .  D
C3304      H3312   1.085       .  S
C3313      C3321   1.496       .  S
C3313      C3314   1.405       .  A
C3313      C3318   1.409       .  A
C3314      C3315   1.402       .  A
C3314      H3323   1.083       .  S
C3315      C3316   1.409       .  A
C3315      H3324   1.081       .  S
C3316      C3319   1.494       .  S
C3316      C3317   1.404       .  A
C3317      C3318   1.401       .  A
C3317      H3325   1.083       .  S
C3318      H3326   1.081       .  S
C3319      H3327   1.086       .  S
C3319      C3320   1.347       .  D
C3320      H3328   1.084       .  S
C3321      H3329   1.086       .  S
C3321      C3322   1.349       .  D
C3322      H3330   1.083       .  S
C3331      C3339   1.491       .  S
C3331      C3332   1.403       .  A
C3331      C3336   1.409       .  A
C3332      C3333   1.395       .  A
C3332      H3341   1.083       .  S
C3333      C3334   1.406       .  A
C3333      H3342   1.082       .  S
C3334      C3337   1.495       .  S
C3334      C3335   1.407       .  A
C3335      C3336   1.408       .  A
C3335      H3343   1.083       .  S
C3336      H3344   1.082       .  S
C3337      H3345   1.086       .  S
C3337      C3338   1.348       .  D
C3338      H3346   1.086       .  S
C3339      H3347   1.087       .  S
C3339      C3340   1.350       .  D
C3340      H3348   1.085       .  S
C3349      C3357   1.492       .  S
C3349      C3350   1.404       .  A
C3349      C3354   1.409       .  A
C3350      C3351   1.397       .  A
C3350      H3359   1.083       .  S
C3351      C3352   1.408       .  A
C3351      H3360   1.081       .  S
C3352      C3355   1.493       .  S
C3352      C3353   1.405       .  A
C3353      C3354   1.403       .  A
C3353      H3361   1.083       .  S
C3354      H3362   1.081       .  S
C3355      H3363   1.087       .  S
C3355      C3356   1.347       .  D
C3356      H3364   1.084       .  S
C3357      H3365   1.087       .  S
C3357      C3358   1.349       .  D
C3358      H3366   1.084       .  S
C3367      C3375   1.500       .  S
C3367      C3368   1.406       .  A
C3367      C3372   1.409       .  A
C3368      C3369   1.405       .  A
C3368      H3377   1.083       .  S
C3369      C3370   1.411       .  A
C3369      H3378   1.080       .  S
C3370      C3373   1.499       .  S
C3370      C3371   1.405       .  A
C3371      C3372   1.401       .  A
C3371      H3379   1.083       .  S
C3372      H3380   1.081       .  S
C3373      H3381   1.087       .  S
C3373      C3374   1.350       .  D
C3374      H3382   1.083       .  S
C3375      H3383   1.087       .  S
C3375      C3376   1.349       .  D
C3376      H3384   1.084       .  S
C3385      C3393   1.492       .  S
C3385      C3386   1.405       .  A
C3385      C3390   1.408       .  A
C3386      C3387   1.403       .  A
C3386      H3395   1.083       .  S
C3387      C3388   1.408       .  A
C3387      H3396   1.082       .  S
C3388      C3391   1.489       .  S
C3388      C3389   1.403       .  A
C3389      C3390   1.397       .  A
C3389      H3397   1.083       .  S
C3390      H3398   1.082       .  S
C3391      H3399   1.087       .  S
C3391      C3392   1.347       .  D
C3392      H3400   1.084       .  S
C3393      H3401   1.087       .  S
C3393      C3394   1.345       .  D
C3394      H3402   1.084       .  S
C3403      C3411   1.494       .  S
C3403      C3404   1.405       .  A
C3403      C3408   1.408       .  A
C3404      C3405   1.401       .  A
C3404      H3413   1.084       .  S
C3405      C3406   1.407       .  A
C3405      H3414   1.082       .  S
C3406      C3409   1.493       .  S
C3406      C3407   1.406       .  A
C3407      C3408   1.404       .  A
C3407      H3415   1.083       .  S
C3408      H3416   1.081       .  S
C3409      H3417   1.087       .  S
C3409      C3410   1.349       .  D
C3410      H3418   1.085       .  S
C3411      H3419   1.087       .  S
C3411      C3412   1.350       .  D
C3412      H3420   1.085       .  S
C3421      C3429   1.501       .  S
C3421      C3422   1.407       .  A
C3421      C3426   1.410       .  A
C3422      C3423   1.402       .  A
C3422      H3431   1.083       .  S
C3423      C3424   1.408       .  A
C3423      H3432   1.081       .  S
C3424      C3427   1.501       .  S
C3424      C3425   1.407       .  A
C3425      C3426   1.406       .  A
C3425      H3433   1.083       .  S
C3426      H3434   1.080       .  S
C3427      H3435   1.087       .  S
C3427      C3428   1.352       .  D
C3428      H3436   1.084       .  S
C3429      H3437   1.087       .  S
C3429      C3430   1.353       .  D
C3430      H3438   1.083       .  S
C3439      C3447   1.493       .  S
C3439      C3440   1.405       .  A
C3439      C3444   1.408       .  A
C3440      C3441   1.400       .  A
C3440      H3449   1.083       .  S
C3441      C3442   1.407       .  A
C3441      H3450   1.082       .  S
C3442      C3445   1.494       .  S
C3442      C3443   1.406       .  A
C3443      C3444   1.405       .  A
C3443      H3451   1.083       .  S
C3444      H3452   1.082       .  S
C3445      H3453   1.087       .  S
C3445      C3446   1.349       .  D
C3446      H3454   1.085       .  S
C3447      H3455   1.087       .  S
C3447      C3448   1.350       .  D
C3448      H3456   1.085       .  S
C3457      C3465   1.493       .  S
C3457      C3458   1.403       .  A
C3457      C3462   1.409       .  A
C3458      C3459   1.396       .  A
C3458      H3467   1.083       .  S
C3459      C3460   1.409       .  A
C3459      H3468   1.080       .  S
C3460      C3463   1.499       .  S
C3460      C3461   1.408       .  A
C3461      C3462   1.407       .  A
C3461      H3469   1.083       .  S
C3462      H3470   1.081       .  S
C3463      H3471   1.087       .  S
C3463      C3464   1.349       .  D
C3464      H3472   1.084       .  S
C3465      H3473   1.087       .  S
C3465      C3466   1.349       .  D
C3466      H3474   1.084       .  S
C3475      C3483   1.503       .  S
C3475      C3476   1.408       .  A
C3475      C3480   1.410       .  A
C3476      C3477   1.406       .  A
C3476      H3485   1.083       .  S
C3477      C3478   1.410       .  A
C3477      H3486   1.081       .  S
C3478      C3481   1.498       .  S
C3478      C3479   1.404       .  A
C3479      C3480   1.400       .  A
C3479      H3487   1.083       .  S
C3480      H3488   1.079       .  S
C3481      H3489   1.087       .  S
C3481      C3482   1.350       .  D
C3482      H3490   1.083       .  S
C3483      H3491   1.087       .  S
C3483      C3484   1.351       .  D
C3484      H3492   1.082       .  S
C3493      C3501   1.502       .  S
C3493      C3494   1.407       .  A
C3493      C3498   1.411       .  A
C3494      C3495   1.403       .  A
C3494      H3503   1.083       .  S
C3495      C3496   1.407       .  A
C3495      H3504   1.082       .  S
C3496      C3499   1.496       .  S
C3496      C3497   1.405       .  A
C3497      C3498   1.402       .  A
C3497      H3505   1.083       .  S
C3498      H3506   1.080       .  S
C3499      H3507   1.086       .  S
C3499      C3500   1.350       .  D
C3500      H3508   1.084       .  S
C3501      H3509   1.087       .  S
C3501      C3502   1.351       .  D
C3502      H3510   1.082       .  S
C3511      C3519   1.490       .  S
C3511      C3512   1.405       .  A
C3511      C3516   1.409       .  A
C3512      C3513   1.397       .  A
C3512      H3521   1.083       .  S
C3513      C3514   1.406       .  A
C3513      H3522   1.083       .  S
C3514      C3517   1.492       .  S
C3514      C3515   1.406       .  A
C3515      C3516   1.405       .  A
C3515      H3523   1.083       .  S
C3516      H3524   1.081       .  S
C3517      H3525   1.086       .  S
C3517      C3518   1.348       .  D
C3518      H3526   1.086       .  S
C3519      H3527   1.087       .  S
C3519      C3520   1.350       .  D
C3520      H3528   1.084       .  S
