geometry optimzed in LAMMPS
_audit_creation_date              2020-11-30 
_audit_creation_method            'lammps2cif' 
_symmetry_space_group_name_H-M    'P1' 
_symmetry_Int_Tables_number       1 
_symmetry_cell_setting            triclinic 
loop_ 
_symmetry_equiv_pos_as_xyz 
  x,y,z 
_cell_length_a                    39.70188245 
_cell_length_b                    39.6855075339142 
_cell_length_c                    39.60029362570023 
_cell_angle_alpha                 90.1884724890634 
_cell_angle_beta                  89.95726462080621 
_cell_angle_gamma                 89.93451045513731 
loop_ 
_atom_site_label 
_atom_site_type_symbol 
_atom_site_fract_x 
_atom_site_fract_y 
_atom_site_fract_z 
_atom_site_charge 
N1          N  0.00858853  0.24857332  0.19743103    -0.35400
N2          N  0.00713717  0.30086213  0.24914727    -0.56000
N3          N  0.00480867  0.24985619  0.30085324    -0.35400
N4          N  0.00341328  0.19743523  0.24928856    -0.56000
C5          C  0.00069805  0.27604855  0.17892071     0.28200
C6          C  0.99963114  0.22117690  0.17911124     0.28200
C7          C  0.99805753  0.27765277  0.31956430     0.28200
C8          C  0.99634040  0.22273412  0.31960396     0.28200
C9          C  0.01393272  0.31988250  0.22178555     0.36800
C10         C  0.01236458  0.32069334  0.27644141     0.36800
C11         C  0.01144366  0.17801589  0.22237418     0.36800
C12         C  0.00934125  0.17853885  0.27695036     0.36800
C13         C  0.98663143  0.26601491  0.14845902    -0.20700
C14         C  0.98589093  0.23133766  0.14860589    -0.20700
C15         C  0.98529372  0.26806860  0.35069176    -0.20700
C16         C  0.98416004  0.23337901  0.35069842    -0.20700
C17         C  0.02378106  0.35193485  0.23172511    -0.21700
C18         C  0.02266878  0.35247855  0.26640285    -0.21700
C19         C  0.02267908  0.14670335  0.23295294    -0.21700
C20         C  0.02120024  0.14698518  0.26760708    -0.21700
C21         C  0.00756151  0.30980281  0.18814757    -0.17100
C22         C  0.00565676  0.18735982  0.18851159    -0.17100
C23         C  0.00212431  0.18874898  0.31036059    -0.17100
C24         C  0.00515699  0.31124238  0.31003564    -0.17100
H25         H  0.97793518  0.28201583  0.12816710     0.15800
H26         H  0.97653067  0.21543039  0.12844728     0.15800
H27         H  0.97802661  0.28435203  0.37143964     0.15800
H28         H  0.97593448  0.21776222  0.37148133     0.15800
H29         H  0.03015107  0.37300446  0.21565945     0.14100
H30         H  0.02808802  0.37399931  0.28234960     0.14100
H31         H  0.03062485  0.12571765  0.21733261     0.14100
H32         H  0.02789355  0.12629244  0.28403738     0.14100
H33         H  0.02274591  0.24843017  0.21953913     0.27400
H34         H  0.01826172  0.24921950  0.27835367     0.27400
O35         O  0.50098737  0.09470839  0.05371953    -0.85300
O36         O  0.50072069  0.40518985  0.05553769    -0.85400
O37         O  0.44375735  0.00050175  0.09491466    -0.87100
O38         O  0.05470003  0.00099768  0.09410805    -0.85900
O39         O  0.09514115  0.49789345  0.05757686    -0.85500
O40         O  0.40435137  0.50044179  0.05415244    -0.86800
O41         O  0.49842916  0.44617426  0.09665066    -0.85300
O42         O  0.49744069  0.05392826  0.09469741    -0.84900
Zr43       Zr  0.49921062  0.50080675  0.06832046     2.84300
O44         O  0.03415639  0.46558231  0.03619663    -1.06900
O45         O  0.46502756  0.03339652  0.03282646    -1.07600
C46         C  0.49935309  0.08481616  0.08469731     1.07800
C47         C  0.49954157  0.41515340  0.08657998     1.07800
C48         C  0.41268473  0.00012280  0.08512942     1.10800
C49         C  0.08560824  0.00145257  0.08378269     1.08500
H50         H  0.45159366  0.45200698  0.04791042     0.34100
O51         O  0.46591104  0.46594663  0.03403409    -1.27800
H52         H  0.04729707  0.04731046  0.04682473     0.33800
O53         O  0.03319226  0.03328946  0.03277901    -1.29500
O54         O  0.50179320  0.40383949  0.44380996    -0.85300
O55         O  0.50220673  0.09580680  0.44386366    -0.86800
O56         O  0.40508521  0.44337298  0.49511338    -0.85400
O57         O  0.09573741  0.44566655  0.50353007    -0.85400
O58         O  0.09456083  0.05586692  0.50066704    -0.85100
O59         O  0.40428572  0.05385955  0.50195679    -0.84900
O60         O  0.44698013  0.49928657  0.40221226    -0.85300
O61         O  0.05788668  0.50017856  0.40777278    -0.84800
O62         O  0.40537377  0.49819284  0.44254200    -0.85800
O63         O  0.09788178  0.49908720  0.44971204    -0.85000
O64         O  0.44614686  0.40264116  0.49640358    -0.85400
O65         O  0.44473839  0.09518068  0.50017875    -0.85100
O66         O  0.05337158  0.09644609  0.49956677    -0.84700
O67         O  0.05548326  0.40436498  0.50087838    -0.85200
O68         O  0.50002163  0.44464422  0.40275728    -0.85500
O69         O  0.49945654  0.05476895  0.40298857    -0.86800
Zr70       Zr  0.50062413  0.43116803  0.49940993     2.83100
Zr71       Zr  0.49974646  0.06782270  0.49861515     2.83500
Zr72       Zr  0.43167215  0.49878451  0.49815386     2.84100
Zr73       Zr  0.06720229  0.50011309  0.50257035     2.83400
Zr74       Zr  0.50133533  0.49899713  0.43111225     2.84200
O75         O  0.03319896  0.03434049  0.46437088    -1.07400
O76         O  0.46698901  0.46500674  0.46484404    -1.06900
C77         C  0.50070540  0.41373560  0.41272020     1.07800
C78         C  0.50123268  0.08580043  0.41278811     1.10400
C79         C  0.41505781  0.41232588  0.49502528     1.08000
C80         C  0.08645352  0.41450359  0.50216429     1.08300
C81         C  0.08443084  0.08685716  0.50090459     1.07900
C82         C  0.41386577  0.08496899  0.50169684     1.07500
C83         C  0.41578820  0.49879094  0.41161622     1.07900
C84         C  0.08868109  0.49965568  0.41852210     1.07400
H85         H  0.45056979  0.04790890  0.45093902     0.34100
O86         O  0.46492789  0.03393917  0.46484575    -1.28500
H87         H  0.04919435  0.45187855  0.45324331     0.34100
O88         O  0.03464590  0.46586702  0.46695483    -1.29800
N89         N  0.24836386  0.99680614  0.30075248    -0.35400
N90         N  0.30022035  0.99785632  0.25006770    -0.56000
N91         N  0.24897071  0.99911965  0.19802184    -0.35400
N92         N  0.19719837  0.00009411  0.24856967    -0.56000
C93         C  0.27582146  0.00525255  0.31910688     0.28200
C94         C  0.22096352  0.00688486  0.31833946     0.28200
C95         C  0.27677547  0.00905222  0.18110471     0.28200
C96         C  0.22200836  0.00973701  0.18012643     0.28200
C97         C  0.31815163  0.98782307  0.27717488     0.36800
C98         C  0.31867004  0.98977714  0.22258577     0.36800
C99         C  0.17811140  0.99224863  0.27560321     0.36800
C100        C  0.17843827  0.99320812  0.22097992     0.36800
C101        C  0.26578285  0.02146424  0.34853547    -0.20700
C102        C  0.23103789  0.02234946  0.34811853    -0.20700
C103        C  0.26742676  0.02659576  0.15235934    -0.20700
C104        C  0.23276280  0.02693396  0.15168675    -0.20700
C105        C  0.34793020  0.97264292  0.26687016    -0.21700
C106        C  0.34833369  0.97404346  0.23215690    -0.21700
C107        C  0.14714870  0.97988323  0.26522468    -0.21700
C108        C  0.14740731  0.98035215  0.23049163    -0.21700
C109        C  0.30922547  0.99589662  0.31077133    -0.17100
C110        C  0.18733555  0.99959693  0.30921563    -0.17100
C111        C  0.18819389  0.00182515  0.18782138    -0.17100
C112        C  0.31001140  0.99954707  0.18948620    -0.17100
H113        H  0.28176054  0.03103023  0.36850714     0.15800
H114        H  0.21500927  0.03267777  0.36771262     0.15800
H115        H  0.28387034  0.03738783  0.13346860     0.15800
H116        H  0.21725718  0.03812222  0.13224590     0.15800
H117        H  0.36764372  0.96243490  0.28270133     0.14100
H118        H  0.36837044  0.96507133  0.21590021     0.14100
H119        H  0.12633296  0.97205452  0.28100947     0.14100
H120        H  0.12683715  0.97288812  0.21420076     0.14100
H121        H  0.24814949  0.98117971  0.27955598     0.27400
H122        H  0.24846356  0.98232489  0.21819691     0.27400
N123        N  0.25126685  0.30027402  0.50149628    -0.35400
N124        N  0.30158282  0.24784471  0.50332196    -0.56000
N125        N  0.24904182  0.19751239  0.50999508    -0.35400
N126        N  0.19870348  0.25025688  0.50530656    -0.56000
C127        C  0.27885228  0.31631509  0.48965204     0.28200
C128        C  0.22400840  0.31802957  0.49141353     0.28200
C129        C  0.27598635  0.17854427  0.50116392     0.28200
C130        C  0.22111030  0.17979257  0.50188827     0.28200
C131        C  0.32084770  0.27522275  0.50938106     0.36800
C132        C  0.31948250  0.22093612  0.51382706     0.36800
C133        C  0.18093370  0.27853529  0.51216581     0.36800
C134        C  0.17967889  0.22407187  0.51577847     0.36800
C135        C  0.26898943  0.34432076  0.47122346    -0.19600
C136        C  0.23428756  0.34550370  0.47249944    -0.20700
C137        C  0.26511519  0.14839303  0.48716618    -0.20700
C138        C  0.23042284  0.14921458  0.48752832    -0.20700
C139        C  0.35087513  0.26574240  0.52448148    -0.21700
C140        C  0.35006760  0.23121200  0.52715265    -0.21700
C141        C  0.15070592  0.27031087  0.52761615    -0.21700
C142        C  0.14986914  0.23573767  0.52980353    -0.21700
C143        C  0.31240666  0.30799330  0.49843852    -0.17100
C144        C  0.19053703  0.31111668  0.50144527    -0.17100
C145        C  0.18772164  0.18992464  0.50939763    -0.17100
C146        C  0.30990709  0.18728693  0.50758870    -0.17100
H147        H  0.28514528  0.36248639  0.45891727     0.15800
H148        H  0.21848009  0.36466811  0.46127900     0.15800
H149        H  0.28053058  0.12786315  0.47784488     0.15800
H150        H  0.21399180  0.12941497  0.47847925     0.15800
H151        H  0.37147483  0.28188119  0.53210998     0.14100
H152        H  0.36995255  0.21540889  0.53706188     0.14100
H153        H  0.13101855  0.28735662  0.53581520     0.14100
H154        H  0.12942492  0.22086012  0.53995306     0.14100
H155        H  0.25120413  0.28093660  0.51923868     0.27400
H156        H  0.24971175  0.21968993  0.52413917     0.27400
C157        C  0.35808457  0.39218493  0.01260211     0.24800
C158        C  0.38863091  0.38583154  0.49431559    -0.23300
C159        C  0.39447800  0.35425276  0.47898559     0.19700
C160        C  0.36954149  0.32923520  0.47946478     0.24700
C161        C  0.33895362  0.33465783  0.49676863    -0.23200
C162        C  0.33390262  0.36669176  0.01352590     0.19600
F163        F  0.30542393  0.37170346  0.03189145    -0.13200
F164        F  0.35137739  0.42165782  0.02858282    -0.15600
F165        F  0.37525471  0.29975055  0.46291367    -0.15600
F166        F  0.42397106  0.34783761  0.46279609    -0.13200
C167        C  0.38966496  0.14008572  0.48315772     0.24800
C168        C  0.38727611  0.11097878  0.50314911    -0.23300
C169        C  0.36032755  0.10838607  0.02560774     0.19700
C170        C  0.33589338  0.13375054  0.02714425     0.24700
C171        C  0.33652107  0.16078816  0.50601278    -0.23200
C172        C  0.36428464  0.16450058  0.48419619     0.19600
F173        F  0.36669842  0.19174280  0.46367142    -0.13200
F174        F  0.41611301  0.14444239  0.46184655    -0.15600
F175        F  0.31039859  0.13111632  0.04985106    -0.15600
F176        F  0.35781957  0.08152118  0.04662908    -0.13200
C177        C  0.10867614  0.35789938  0.48393159     0.24800
C178        C  0.11349514  0.38846620  0.50142695    -0.23300
C179        C  0.14538070  0.39363213  0.01671350     0.19700
C180        C  0.17014975  0.36849035  0.01656525     0.24700
C181        C  0.16464176  0.33849981  0.50019693    -0.23200
C182        C  0.13430528  0.33369586  0.48250538     0.19600
F183        F  0.12943897  0.30535018  0.46385747    -0.13200
F184        F  0.07936938  0.35161696  0.46750330    -0.15600
F185        F  0.19904171  0.37367663  0.03415749    -0.15600
F186        F  0.15173825  0.42297411  0.03321496    -0.13200
C187        C  0.10635074  0.14445326  0.48687088     0.24800
C188        C  0.11038883  0.11349673  0.50362219    -0.23300
C189        C  0.13934812  0.10863070  0.02277867     0.19700
C190        C  0.16385773  0.13393091  0.02524618     0.24700
C191        C  0.16023227  0.16418211  0.50869630    -0.23200
C192        C  0.13154020  0.16900551  0.48839853     0.19600
F193        F  0.12819837  0.19723080  0.46939295    -0.13200
F194        F  0.07838576  0.15071464  0.46827575    -0.15600
F195        F  0.18968620  0.12996272  0.04733677    -0.15600
F196        F  0.14258378  0.08053188  0.04199313    -0.13200
C197        C  0.33465891  0.48237866  0.36424235     0.24800
C198        C  0.33574410  0.99571554  0.33754023    -0.23300
C199        C  0.36610447  0.01332991  0.33276494     0.19700
C200        C  0.39130854  0.01248042  0.35725867     0.24700
C201        C  0.38970097  0.49959282  0.38501843    -0.23200
C202        C  0.36003812  0.48058840  0.38859195     0.19600
F203        F  0.35606122  0.45942431  0.41516760    -0.13200
F204        F  0.30695099  0.46264734  0.36764158    -0.15600
F205        F  0.42057123  0.02886365  0.35106917    -0.15600
F206        F  0.37144611  0.03155840  0.30430195    -0.13200
C207        C  0.13389470  0.02315333  0.33375562     0.24800
C208        C  0.16083081  0.00020187  0.33571840    -0.23300
C209        C  0.16606445  0.47710362  0.36712511     0.19700
C210        C  0.14209031  0.47704410  0.39316251     0.24700
C211        C  0.11540455  0.50041376  0.39281532    -0.23200
C212        C  0.10858911  0.02312105  0.35835211     0.19600
F213        F  0.08279551  0.04548617  0.35588412    -0.13200
F214        F  0.13229800  0.04572539  0.30810875    -0.15600
F215        F  0.14438692  0.45371292  0.41810441    -0.15600
F216        F  0.19092669  0.45356106  0.36707205    -0.13200
C217        C  0.10793147  0.02219322  0.13935446     0.24800
C218        C  0.11236085  0.00302774  0.10972475    -0.23300
C219        C  0.13327002  0.47304071  0.11771179     0.19700
C220        C  0.15804916  0.47353984  0.14275816     0.24700
C221        C  0.16239025  0.00320860  0.16045398    -0.23200
C222        C  0.13297579  0.02273245  0.16422053     0.19600
F223        F  0.12856017  0.04242021  0.19198080    -0.13200
F224        F  0.07973737  0.04109413  0.14386678    -0.15600
F225        F  0.17946633  0.44701182  0.14567188    -0.15600
F226        F  0.13090170  0.44598811  0.09678523    -0.13200
C227        C  0.35736873  0.48288506  0.10708945     0.24800
C228        C  0.38616660  0.00069233  0.11160109    -0.23300
C229        C  0.39116698  0.01824635  0.14214767     0.19700
C230        C  0.36616677  0.01862264  0.16706902     0.24700
C231        C  0.33633151  0.00008982  0.16266965    -0.23200
C232        C  0.33239525  0.48224488  0.13202090     0.19600
F233        F  0.30529203  0.46186160  0.12766191    -0.13200
F234        F  0.35344247  0.46353518  0.07915868    -0.15600
F235        F  0.37086781  0.03751712  0.19532668    -0.15600
F236        F  0.41992433  0.03577396  0.14762608    -0.13200
C237        C  0.02721424  0.16118915  0.36119868     0.24800
C238        C  0.49938102  0.16238445  0.33617323    -0.23300
C239        C  0.47856091  0.13384958  0.33367074     0.19700
C240        C  0.48029867  0.10845283  0.35791672     0.24700
C241        C  0.50133924  0.11190321  0.38621780    -0.23200
C242        C  0.02713245  0.13606676  0.38589280     0.19600
F243        F  0.05291723  0.13452613  0.40824432    -0.13200
F244        F  0.05283193  0.18380525  0.36032317    -0.15600
F245        F  0.46086095  0.08070050  0.35401939    -0.15600
F246        F  0.45658305  0.13050647  0.30762080    -0.13200
C247        C  0.03141315  0.34176615  0.35882419     0.24800
C248        C  0.49917957  0.33731605  0.33594369    -0.23300
C249        C  0.47288294  0.36097608  0.33812627     0.19700
C250        C  0.47348196  0.38610178  0.36303972     0.24700
C251        C  0.50017256  0.38757686  0.38629723    -0.23200
C252        C  0.03063423  0.36682179  0.38377317     0.19600
F253        F  0.05764988  0.37091468  0.40433109    -0.13200
F254        F  0.05876750  0.32136477  0.35624267    -0.15600
F255        F  0.44770985  0.40856701  0.36494902    -0.15600
F256        F  0.44649194  0.35939145  0.31639935    -0.13200
C257        C  0.47568609  0.38878228  0.13863260     0.24800
C258        C  0.49957030  0.38858397  0.11242384    -0.23300
C259        C  0.02871042  0.36234701  0.11115912     0.19700
C260        C  0.03008012  0.33713028  0.13573817     0.24700
C261        C  0.49922092  0.33666961  0.16067825    -0.23200
C262        C  0.47497453  0.36250454  0.16208140     0.19600
F263        F  0.45055649  0.36207110  0.18610920    -0.13200
F264        F  0.45240224  0.41378729  0.14084909    -0.15600
F265        F  0.05507824  0.31377532  0.13445654    -0.15600
F266        F  0.05186340  0.36233785  0.08589281    -0.13200
C267        C  0.47318281  0.11405352  0.13377458     0.24800
C268        C  0.49995624  0.11106630  0.11083876    -0.23300
C269        C  0.02482936  0.13719150  0.10892951     0.19700
C270        C  0.02622661  0.16203750  0.13396986     0.24700
C271        C  0.50109286  0.16125389  0.16100886    -0.23200
C272        C  0.47402815  0.13857245  0.15914316     0.19600
F273        F  0.44821156  0.14061107  0.18156376    -0.13200
F274        F  0.44559851  0.09421106  0.13059761    -0.15600
F275        F  0.04880203  0.18751363  0.13085179    -0.15600
F276        F  0.04624096  0.13902426  0.08221711    -0.13200
N277        N  0.00194932  0.25033651  0.69816366    -0.35400
N278        N  0.99876413  0.30225990  0.75001360    -0.56000
N279        N  0.99932249  0.25065987  0.80141574    -0.35400
N280        N  0.99940887  0.19863469  0.74951415    -0.56000
C281        C  0.99291273  0.27759262  0.67984782     0.28200
C282        C  0.99446911  0.22274097  0.67949604     0.28200
C283        C  0.99217263  0.27817844  0.82036466     0.28200
C284        C  0.99152158  0.22326134  0.82006123     0.28200
C285        C  0.00515459  0.32153772  0.72273499     0.36800
C286        C  0.00471554  0.32179566  0.77733960     0.36800
C287        C  0.00772853  0.17953773  0.72244101     0.36800
C288        C  0.00503085  0.17946711  0.77707684     0.36800
C289        C  0.97943767  0.26721364  0.64924015    -0.20700
C290        C  0.98038541  0.23255377  0.64902680    -0.20700
C291        C  0.97990287  0.26817273  0.85155205    -0.20700
C292        C  0.97946725  0.23347659  0.85135403    -0.20700
C293        C  0.01533031  0.35344955  0.73274608    -0.21700
C294        C  0.01495709  0.35364207  0.76741141    -0.21700
C295        C  0.01886747  0.14811907  0.73287797    -0.21700
C296        C  0.01686586  0.14798087  0.76753129    -0.21700
C297        C  0.99886891  0.31150749  0.68910513    -0.17100
C298        C  0.00207658  0.18914430  0.68854510    -0.17100
C299        C  0.99767617  0.18942836  0.81055093    -0.17100
C300        C  0.99858112  0.31192768  0.81098029    -0.17100
H301        H  0.97023650  0.28299164  0.62899550     0.15800
H302        H  0.97196470  0.21644488  0.62861378     0.15800
H303        H  0.97244348  0.28419778  0.87243329     0.15800
H304        H  0.97171361  0.21757934  0.87210653     0.15800
H305        H  0.02174199  0.37456851  0.71676906     0.14100
H306        H  0.02103771  0.37492256  0.78343931     0.14100
H307        H  0.02693286  0.12725312  0.71716142     0.14100
H308        H  0.02321926  0.12707033  0.78382038     0.14100
H309        H  0.01614494  0.25063128  0.72023939     0.27400
H310        H  0.01260020  0.25053480  0.77880283     0.27400
O311        O  0.50131889  0.09554321  0.55344546    -0.85300
O312        O  0.50076185  0.40451369  0.55501625    -0.85400
O313        O  0.44626837  0.99900972  0.59563567    -0.87100
O314        O  0.05409868  0.00132624  0.59489131    -0.85900
O315        O  0.09298808  0.49796156  0.55820662    -0.85500
O316        O  0.40314409  0.49742694  0.55335498    -0.86800
O317        O  0.49755567  0.44576011  0.59581495    -0.85300
O318        O  0.49938716  0.05471293  0.59442672    -0.84900
Zr319      Zr  0.49797388  0.50041467  0.56734893     2.84300
O320        O  0.03262873  0.46581760  0.53560085    -1.06900
O321        O  0.46607425  0.03371991  0.53312935    -1.07600
C322        C  0.50056310  0.08568869  0.58446129     1.07800
C323        C  0.49929434  0.41465283  0.58607374     1.07800
C324        C  0.41518895  0.99852201  0.58602649     1.10800
C325        C  0.08503135  0.00043478  0.58478973     1.08500
H326        H  0.45108824  0.45095241  0.54668320     0.34100
O327        O  0.46528243  0.46510627  0.53290121    -1.27800
H328        H  0.04719665  0.04832603  0.54710024     0.33800
O329        O  0.03320521  0.03428258  0.53295785    -1.29500
O330        O  0.50230075  0.40388101  0.94537958    -0.85300
O331        O  0.50001368  0.09547721  0.94408664    -0.86800
O332        O  0.40559416  0.44457187  0.99773049    -0.85400
O333        O  0.09676242  0.44529566  0.00272101    -0.85400
O334        O  0.09476383  0.05509789  0.99968161    -0.85100
O335        O  0.40356586  0.05393487  0.00160057    -0.84900
O336        O  0.44699197  0.49865312  0.90315454    -0.85300
O337        O  0.05777170  0.50038469  0.90757597    -0.84800
O338        O  0.40571213  0.49829708  0.94377671    -0.85800
O339        O  0.09798327  0.49902990  0.94929825    -0.85000
O340        O  0.44649008  0.40366533  0.99801011    -0.85400
O341        O  0.44461069  0.09471746  0.00051529    -0.85100
O342        O  0.05385466  0.09598072  0.99865399    -0.84700
O343        O  0.05633631  0.40415488  0.00113631    -0.85200
O344        O  0.50074664  0.44454834  0.90417320    -0.85500
O345        O  0.49706325  0.05473450  0.90278580    -0.86800
Zr346      Zr  0.50089030  0.43187864  0.00036065     2.83100
Zr347      Zr  0.49931788  0.06724205  0.99867994     2.83500
Zr348      Zr  0.43268036  0.49986236  0.99915955     2.84100
Zr349      Zr  0.06825736  0.49955764  0.00255625     2.83400
Zr350      Zr  0.50173171  0.49953517  0.93174058     2.84200
O351        O  0.03294495  0.03429816  0.96419123    -1.07400
O352        O  0.46743350  0.46579068  0.96573530    -1.06900
C353        C  0.50142840  0.41363650  0.91427800     1.07800
C354        C  0.49855759  0.08564144  0.91300828     1.10400
C355        C  0.41546780  0.41348964  0.99727116     1.08000
C356        C  0.08731000  0.41420998  0.00176960     1.08300
C357        C  0.08492044  0.08619165  0.99961510     1.07900
C358        C  0.41365305  0.08486031  0.00175019     1.07500
C359        C  0.41579977  0.49801536  0.91271919     1.07900
C360        C  0.08859047  0.49975857  0.91819219     1.07400
H361        H  0.44992134  0.04781581  0.95091502     0.34100
O362        O  0.46423990  0.03372032  0.96473034    -1.28500
H363        H  0.04954115  0.45172665  0.95328793     0.34100
O364        O  0.03520970  0.46572837  0.96721492    -1.29800
N365        N  0.24851751  0.00045473  0.80018491    -0.35400
N366        N  0.30041201  0.99734479  0.74927930    -0.56000
N367        N  0.24922984  0.99610977  0.69719080    -0.35400
N368        N  0.19736646  0.00172939  0.74844937    -0.56000
C369        C  0.27624716  0.00830449  0.81831531     0.28200
C370        C  0.22154833  0.01147568  0.81786589     0.28200
C371        C  0.27711782  0.00447865  0.67941969     0.28200
C372        C  0.22217892  0.00541937  0.67867331     0.28200
C373        C  0.31824676  0.98858764  0.77689630     0.36800
C374        C  0.31873697  0.98743801  0.72231174     0.36800
C375        C  0.17787841  0.99671696  0.77594464     0.36800
C376        C  0.17822516  0.99400050  0.72135701     0.36800
C377        C  0.26688964  0.02490190  0.84772813    -0.20700
C378        C  0.23222962  0.02686294  0.84746670    -0.20700
C379        C  0.26757081  0.01970321  0.64937735    -0.20700
C380        C  0.23286125  0.01983461  0.64870475    -0.20700
C381        C  0.34788922  0.97263586  0.76753772    -0.21700
C382        C  0.34811463  0.97171783  0.73283168    -0.21700
C383        C  0.14624991  0.98549486  0.76632088    -0.21700
C384        C  0.14645837  0.98380088  0.73163771    -0.21700
C385        C  0.30925279  0.99789582  0.81008535    -0.17100
C386        C  0.18768383  0.00492883  0.80923763    -0.17100
C387        C  0.18822515  0.99947802  0.68762132    -0.17100
C388        C  0.31057587  0.99592629  0.68870405    -0.17100
H389        H  0.28326408  0.03393478  0.86762597     0.15800
H390        H  0.21662655  0.03768555  0.86713770     0.15800
H391        H  0.28385785  0.02919824  0.62966958     0.15800
H392        H  0.21726974  0.02947224  0.62850339     0.15800
H393        H  0.36750278  0.96320231  0.78396566     0.14100
H394        H  0.36796950  0.96140067  0.71715628     0.14100
H395        H  0.12507262  0.97975016  0.78252285     0.14100
H396        H  0.12544853  0.97658371  0.71579708     0.14100
H397        H  0.24782134  0.98443425  0.77932056     0.27400
H398        H  0.24858310  0.98135246  0.71888412     0.27400
N399        N  0.25178303  0.30060150  0.99927847    -0.35400
N400        N  0.30267214  0.24878417  0.00092950    -0.56000
N401        N  0.25026425  0.19774262  0.00723327    -0.35400
N402        N  0.19944913  0.24976966  0.00222257    -0.56000
C403        C  0.27924340  0.31750508  0.98835493     0.28200
C404        C  0.22436263  0.31832858  0.98966684     0.28200
C405        C  0.27758127  0.17896583  0.99926882     0.28200
C406        C  0.22267958  0.17938939  0.99923012     0.28200
C407        C  0.32161482  0.27634428  0.00731326     0.36800
C408        C  0.32067246  0.22204453  0.01174331     0.36800
C409        C  0.18145844  0.27784817  0.00939637     0.36800
C410        C  0.18048260  0.22327054  0.01211627     0.36800
C411        C  0.26915721  0.34611809  0.97102103    -0.19600
C412        C  0.23443269  0.34668049  0.97192005    -0.20700
C413        C  0.26731449  0.14829097  0.98593885    -0.20700
C414        C  0.23260863  0.14858873  0.98584189    -0.20700
C415        C  0.35158526  0.26710924  0.02266446    -0.21700
C416        C  0.35105310  0.23259531  0.02531720    -0.21700
C417        C  0.15114530  0.26912797  0.02443854    -0.21700
C418        C  0.15043414  0.23450978  0.02591771    -0.21700
C419        C  0.31283612  0.30924773  0.99701582    -0.17100
C420        C  0.19093412  0.31077184  0.99943837    -0.17100
C421        C  0.18903067  0.18917419  0.00599087    -0.17100
C422        C  0.31128031  0.18822569  0.00611416    -0.17100
H423        H  0.28515125  0.36505346  0.95970241     0.15800
H424        H  0.21847223  0.36609683  0.96136069     0.15800
H425        H  0.28314303  0.12771733  0.97744680     0.15800
H426        H  0.21656746  0.12828683  0.97721803     0.15800
H427        H  0.37186767  0.28344022  0.03073189     0.14100
H428        H  0.37089187  0.21699519  0.03562857     0.14100
H429        H  0.13131752  0.28588888  0.03287991     0.14100
H430        H  0.13003550  0.21933119  0.03570503     0.14100
H431        H  0.25181319  0.28064670  0.01629844     0.27400
H432        H  0.25051310  0.22022166  0.02088159     0.27400
C433        C  0.35737869  0.39163411  0.51008789     0.24800
C434        C  0.38912751  0.38702608  0.99625620    -0.23300
C435        C  0.39482498  0.35617088  0.97949295     0.19700
C436        C  0.36977436  0.33133377  0.97876832     0.24700
C437        C  0.33919725  0.33612593  0.99624840    -0.23200
C438        C  0.33346312  0.36602036  0.51244242     0.19600
F439        F  0.30492694  0.37181360  0.53049972    -0.13200
F440        F  0.35008533  0.42198233  0.52403158    -0.15600
F441        F  0.37541782  0.30256405  0.96097835    -0.15600
F442        F  0.42434132  0.35029267  0.96313046    -0.13200
C443        C  0.39022408  0.13967504  0.98239889     0.24800
C444        C  0.38767130  0.11123297  0.00323694    -0.23300
C445        C  0.35921493  0.10690380  0.52447685     0.19700
C446        C  0.33436159  0.13186058  0.52631401     0.24700
C447        C  0.33795912  0.16184332  0.00566130    -0.23200
C448        C  0.36540624  0.16458946  0.98333568     0.19600
F449        F  0.36797543  0.19127669  0.96212548    -0.13200
F450        F  0.41629367  0.14285386  0.96040387    -0.15600
F451        F  0.30840315  0.12804163  0.54831031    -0.15600
F452        F  0.35632446  0.07917570  0.54427369    -0.13200
C453        C  0.10898858  0.35771587  0.98322113     0.24800
C454        C  0.11412336  0.38815433  0.00078338    -0.23300
C455        C  0.14475952  0.39412640  0.51736869     0.19700
C456        C  0.16967271  0.36909301  0.51750860     0.24700
C457        C  0.16494905  0.33807176  0.99892075    -0.23200
C458        C  0.13449269  0.33348070  0.98138406     0.19600
F459        F  0.12936509  0.30533608  0.96249688    -0.13200
F460        F  0.07944072  0.35156620  0.96721730    -0.15600
F461        F  0.19852318  0.37454076  0.53510322    -0.15600
F462        F  0.15114527  0.42365990  0.53339478    -0.13200
C463        C  0.10864942  0.14229489  0.98218588     0.24800
C464        C  0.11132361  0.11264055  0.00139785    -0.23300
C465        C  0.13914901  0.10853161  0.52375295     0.19700
C466        C  0.16321111  0.13405261  0.52716001     0.24700
C467        C  0.16176826  0.16308471  0.00515137    -0.23200
C468        C  0.13399803  0.16681306  0.98339238     0.19600
F469        F  0.13178190  0.19394901  0.96270812    -0.13200
F470        F  0.08194124  0.14716811  0.96145207    -0.15600
F471        F  0.18962002  0.12924003  0.54837645    -0.15600
F472        F  0.14358282  0.07926486  0.54087511    -0.13200
C473        C  0.33381463  0.47966906  0.86657773     0.24800
C474        C  0.33541511  0.99744055  0.83692061    -0.23300
C475        C  0.36410428  0.01790192  0.83409226     0.19700
C476        C  0.38911336  0.01701885  0.85882932     0.24700
C477        C  0.38936136  0.49726504  0.88613463    -0.23200
C478        C  0.35878683  0.48010178  0.89153129     0.19600
F479        F  0.35333525  0.46295213  0.92063758    -0.13200
F480        F  0.30549959  0.46124229  0.87182413    -0.15600
F481        F  0.41651592  0.03713158  0.85532056    -0.15600
F482        F  0.36767141  0.03911856  0.80750568    -0.13200
C483        C  0.13534714  0.02973204  0.83522702     0.24800
C484        C  0.16170960  0.00606363  0.83629671    -0.23300
C485        C  0.16607085  0.47650172  0.86779826     0.19700
C486        C  0.14194942  0.47692683  0.89358943     0.24700
C487        C  0.11525393  0.50021939  0.89254653    -0.23200
C488        C  0.10992627  0.02932465  0.85980757     0.19600
F489        F  0.08513831  0.05289902  0.85872655    -0.13200
F490        F  0.13452252  0.05338642  0.81054456    -0.15600
F491        F  0.14408273  0.45406369  0.91897829    -0.15600
F492        F  0.19103972  0.45309122  0.86851364    -0.13200
C493        C  0.11108703  0.02477978  0.63687474     0.24800
C494        C  0.11138027  0.00052534  0.61096067    -0.23300
C495        C  0.13220380  0.47147902  0.61525295     0.19700
C496        C  0.15733267  0.47029977  0.63991148     0.24700
C497        C  0.16198924  0.00028953  0.66083078    -0.23200
C498        C  0.13645743  0.02491216  0.66141296     0.19600
F499        F  0.13618387  0.04905672  0.68577239    -0.13200
F500        F  0.08654552  0.04862089  0.63807957    -0.15600
F501        F  0.18038456  0.44500849  0.63900942    -0.15600
F502        F  0.13099113  0.44700799  0.59134769    -0.13200
C503        C  0.35808163  0.47551941  0.60738657     0.24800
C504        C  0.38884052  0.99769584  0.61256847    -0.23300
C505        C  0.39420256  0.01279814  0.64430354     0.19700
C506        C  0.36860817  0.01313565  0.66861255     0.24700
C507        C  0.33787359  0.99632432  0.66261901    -0.23200
C508        C  0.33334509  0.47335560  0.63254990     0.19600
F509        F  0.30791449  0.45080611  0.62884897    -0.13200
F510        F  0.35576882  0.45515903  0.58001369    -0.15600
F511        F  0.37387526  0.03015237  0.69794206    -0.15600
F512        F  0.42388281  0.02805527  0.65159254    -0.13200
C513        C  0.02534449  0.15933536  0.85840437     0.24800
C514        C  0.49847327  0.16181683  0.83677473    -0.23300
C515        C  0.46874809  0.14416653  0.84425956     0.19700
C516        C  0.46871122  0.11949576  0.86945734     0.24700
C517        C  0.49847694  0.11191402  0.88698910    -0.23200
C518        C  0.02543795  0.13448411  0.88337574     0.19600
F519        F  0.05337550  0.13015575  0.90254003    -0.13200
F520        F  0.05281105  0.17928043  0.85439665    -0.15600
F521        F  0.43962369  0.10324231  0.87706864    -0.15600
F522        F  0.43988836  0.15089747  0.82718729    -0.13200
C523        C  0.02569649  0.33954995  0.86080120     0.24800
C524        C  0.50037384  0.33678287  0.83796333    -0.23300
C525        C  0.47566839  0.36220275  0.83811222     0.19700
C526        C  0.47620828  0.38746764  0.86283044     0.24700
C527        C  0.50107198  0.38726766  0.88805355    -0.23200
C528        C  0.02644412  0.36444035  0.88583865     0.19600
F529        F  0.05314532  0.36600101  0.90709270    -0.13200
F530        F  0.05141994  0.31707937  0.85856575    -0.15600
F531        F  0.45213499  0.41180436  0.86253776    -0.15600
F532        F  0.45106803  0.36246036  0.81431924    -0.13200
C533        C  0.47739454  0.38908044  0.63977264     0.24800
C534        C  0.50016994  0.38839054  0.61251640    -0.23300
C535        C  0.02086330  0.36149396  0.61074661     0.19700
C536        C  0.02152535  0.33690071  0.63590944     0.24700
C537        C  0.50248130  0.33790457  0.66263779    -0.23200
C538        C  0.47801288  0.36355048  0.66414590     0.19600
F539        F  0.45449385  0.36355851  0.68906953    -0.13200
F540        F  0.45389708  0.41385919  0.64224453    -0.15600
F541        F  0.04545810  0.31245327  0.63473983    -0.15600
F542        F  0.04364016  0.35980170  0.58519881    -0.13200
C543        C  0.47821190  0.11118595  0.63752684     0.24800
C544        C  0.50122753  0.11209014  0.61064879    -0.23300
C545        C  0.02285736  0.14039056  0.60818677     0.19700
C546        C  0.02353177  0.16509421  0.63352770     0.24700
C547        C  0.50272884  0.16216121  0.66126169    -0.23200
C548        C  0.47880535  0.13608205  0.66252665     0.19600
F549        F  0.45567027  0.13504467  0.68776764    -0.13200
F550        F  0.45419969  0.08696389  0.63875403    -0.15600
F551        F  0.04519226  0.19137547  0.63058686    -0.15600
F552        F  0.04395856  0.14324166  0.58133095    -0.13200
N553        N  0.00380991  0.75046626  0.19736473    -0.35400
N554        N  0.00375367  0.80172331  0.24848540    -0.56000
N555        N  0.00769453  0.74959646  0.30050838    -0.35400
N556        N  0.00497077  0.69842048  0.24900153    -0.56000
C557        C  0.99576966  0.77783226  0.17882362     0.28200
C558        C  0.99486610  0.72309979  0.17919174     0.28200
C559        C  0.99883922  0.77688109  0.31903242     0.28200
C560        C  0.00120403  0.72197693  0.31941929     0.28200
C561        C  0.01038275  0.82108881  0.22126590     0.36800
C562        C  0.01054161  0.82078364  0.27590197     0.36800
C563        C  0.01014811  0.67937918  0.22118921     0.36800
C564        C  0.01296218  0.67887774  0.27568581     0.36800
C565        C  0.98127631  0.76779408  0.14858502    -0.20700
C566        C  0.98071099  0.73312516  0.14880915    -0.20700
C567        C  0.98666825  0.76647184  0.35017400    -0.20700
C568        C  0.98834494  0.73179856  0.35047585    -0.20700
C569        C  0.02154222  0.85259532  0.23140437    -0.21700
C570        C  0.02160808  0.85242400  0.26609151    -0.21700
C571        C  0.02139556  0.64757330  0.23019615    -0.21700
C572        C  0.02323432  0.64727692  0.26480769    -0.21700
C573        C  0.00373402  0.81134659  0.18760460    -0.17100
C574        C  0.00226039  0.68952388  0.18803651    -0.17100
C575        C  0.00793816  0.68830258  0.30968411    -0.17100
C576        C  0.00405671  0.81085862  0.30949652    -0.17100
H577        H  0.97264200  0.78375645  0.12823159     0.15800
H578        H  0.97167066  0.71711195  0.12858474     0.15800
H579        H  0.97792266  0.78223643  0.37074788     0.15800
H580        H  0.98099485  0.71568025  0.37120405     0.15800
H581        H  0.02835789  0.87365563  0.21551724     0.14100
H582        H  0.02856751  0.87334415  0.28223125     0.14100
H583        H  0.02716028  0.62662447  0.21359529     0.14100
H584        H  0.03065893  0.62606160  0.28022120     0.14100
H585        H  0.01874729  0.75032840  0.21892530     0.27400
H586        H  0.02096532  0.75001742  0.27786249     0.27400
O587        O  0.50224155  0.59695325  0.05314636    -0.85300
O588        O  0.50114154  0.90307310  0.05252356    -0.85400
O589        O  0.44440193  0.50261972  0.09584896    -0.87100
O590        O  0.05373293  0.50146600  0.09799113    -0.85900
O591        O  0.09508608  0.00062290  0.05256999    -0.85500
O592        O  0.40292609  0.99907742  0.05402446    -0.86800
O593        O  0.49956715  0.94397282  0.09374198    -0.85300
O594        O  0.49813765  0.55661585  0.09451666    -0.84900
Zr595      Zr  0.49863119  0.99912694  0.06680020     2.84300
O596        O  0.03379209  0.96536354  0.03199282    -1.06900
O597        O  0.46629760  0.53453052  0.03301264    -1.07600
C598        C  0.50023448  0.58742238  0.08420482     1.07800
C599        C  0.50079983  0.91299622  0.08363265     1.07800
C600        C  0.41358720  0.50181932  0.08547188     1.10800
C601        C  0.08476201  0.49966868  0.08838762     1.08500
H602        H  0.45071940  0.95032911  0.04694938     0.34100
O603        O  0.46467930  0.96452401  0.03296476    -1.27800
H604        H  0.04781537  0.54820127  0.04990126     0.33800
O605        O  0.03389936  0.53416034  0.03567487    -1.29500
O606        O  0.50066834  0.90462526  0.44285048    -0.85300
O607        O  0.50211628  0.59422760  0.44211995    -0.86800
O608        O  0.40495231  0.94387708  0.49835109    -0.85400
O609        O  0.09614222  0.94659048  0.49917402    -0.85400
O610        O  0.09456706  0.55537458  0.50565846    -0.85100
O611        O  0.40301960  0.55326135  0.49794318    -0.84900
O612        O  0.44360132  0.99776307  0.40436583    -0.85300
O613        O  0.05321010  0.00120750  0.40224892    -0.84800
O614        O  0.40292836  0.99684854  0.44553692    -0.85800
O615        O  0.09425461  0.00072774  0.44316005    -0.85000
O616        O  0.44592510  0.90306301  0.49590772    -0.85400
O617        O  0.44344026  0.59462787  0.49590687    -0.85100
O618        O  0.05338874  0.59591128  0.50224650    -0.84700
O619        O  0.05562571  0.90545902  0.49843214    -0.85200
O620        O  0.49773461  0.94559098  0.40208084    -0.85500
O621        O  0.50182984  0.55271231  0.40153843    -0.86800
Zr622      Zr  0.50060365  0.93160847  0.49812757     2.83100
Zr623      Zr  0.49908723  0.56767925  0.49785563     2.83500
Zr624      Zr  0.43207846  0.99907942  0.49961196     2.84100
Zr625      Zr  0.06735822  0.00068971  0.49858924     2.83400
Zr626      Zr  0.49916087  0.00000713  0.43061057     2.84200
O627        O  0.03440683  0.53392427  0.46674435    -1.07400
O628        O  0.46605419  0.96564837  0.46493282    -1.06900
C629        C  0.49900212  0.91462113  0.41189398     1.07800
C630        C  0.50248971  0.58380505  0.41114075     1.10400
C631        C  0.41481920  0.91285491  0.49652647     1.08000
C632        C  0.08656339  0.91551688  0.49887747     1.08300
C633        C  0.08438725  0.58635999  0.50486241     1.07900
C634        C  0.41247370  0.58440012  0.49662712     1.07500
C635        C  0.41262144  0.99656088  0.41438885     1.07900
C636        C  0.08421083  0.00104186  0.41211855     1.07400
H637        H  0.45194294  0.54675175  0.44936143     0.34100
O638        O  0.46578669  0.53293459  0.46391234    -1.28500
H639        H  0.04793890  0.95242889  0.45005994     0.34100
O640        O  0.03374845  0.96628554  0.46427631    -1.29800
N641        N  0.25008666  0.50330881  0.30206226    -0.35400
N642        N  0.30093962  0.50481006  0.24922894    -0.56000
N643        N  0.24831707  0.50122898  0.19895710    -0.35400
N644        N  0.19738323  0.50310640  0.25201108    -0.56000
C645        C  0.27772675  0.51254246  0.31968888     0.28200
C646        C  0.22296512  0.51025632  0.32149845     0.28200
C647        C  0.27531275  0.50889640  0.17961153     0.28200
C648        C  0.22049079  0.50887685  0.18096195     0.28200
C649        C  0.31985373  0.49686984  0.27640200     0.36800
C650        C  0.31872332  0.49489837  0.22183209     0.36800
C651        C  0.17883329  0.49585707  0.27970843     0.36800
C652        C  0.17776848  0.49619696  0.22499218     0.36800
C653        C  0.26803799  0.52608216  0.35056116    -0.20700
C654        C  0.23339760  0.52442666  0.35179571    -0.20700
C655        C  0.26449501  0.52188393  0.14899020    -0.20700
C656        C  0.22981550  0.52158614  0.14973120    -0.20700
C657        C  0.34967573  0.48171183  0.26626853    -0.21700
C658        C  0.34892901  0.48040651  0.23162945    -0.21700
C659        C  0.14719845  0.48452499  0.27022346    -0.21700
C660        C  0.14647945  0.48487805  0.23551597    -0.21700
C661        C  0.31121596  0.50507225  0.31003432    -0.17100
C662        C  0.18940461  0.50173621  0.31333817    -0.17100
C663        C  0.18710498  0.50200981  0.19107399    -0.17100
C664        C  0.30912079  0.50165015  0.18818871    -0.17100
H665        H  0.28427654  0.53511941  0.37057066     0.15800
H666        H  0.21774131  0.53217942  0.37282712     0.15800
H667        H  0.27990897  0.53002889  0.12800339     0.15800
H668        H  0.21334964  0.52938876  0.12942404     0.15800
H669        H  0.36987980  0.47261145  0.28215042     0.14100
H670        H  0.36849270  0.47025340  0.21548507     0.14100
H671        H  0.12667917  0.47710893  0.28658719     0.14100
H672        H  0.12533247  0.47773997  0.21982213     0.14100
H673        H  0.24997843  0.48875633  0.28017144     0.27400
H674        H  0.24878153  0.48757985  0.22133039     0.27400
N675        N  0.24974427  0.80132638  0.49905715    -0.35400
N676        N  0.30055144  0.74921121  0.49648603    -0.56000
N677        N  0.24824236  0.69840084  0.50286169    -0.35400
N678        N  0.19731240  0.75052793  0.50234357    -0.56000
C679        C  0.27701202  0.81906761  0.48906894     0.28200
C680        C  0.22220297  0.81954825  0.49082742     0.28200
C681        C  0.27484480  0.67945708  0.49294595     0.28200
C682        C  0.22005445  0.68017523  0.49698094     0.28200
C683        C  0.32002882  0.77637013  0.50314105     0.36800
C684        C  0.31932069  0.72177236  0.50389521     0.36800
C685        C  0.17941360  0.77849290  0.50994342     0.36800
C686        C  0.17859890  0.72404832  0.51258222     0.36800
C687        C  0.26673176  0.84889652  0.47409916    -0.19600
C688        C  0.23207562  0.84910339  0.47498625    -0.20700
C689        C  0.26339918  0.64887721  0.48036426    -0.20700
C690        C  0.22879478  0.64929932  0.48298606    -0.20700
C691        C  0.35116965  0.76615258  0.51513954    -0.21700
C692        C  0.35076841  0.73153927  0.51548715    -0.21700
C693        C  0.14929416  0.76975387  0.52536244    -0.21700
C694        C  0.14873716  0.73518477  0.52692673    -0.21700
C695        C  0.31078311  0.80998078  0.49578621    -0.17100
C696        C  0.18883776  0.81142969  0.50031435    -0.17100
C697        C  0.18702416  0.69005196  0.50618850    -0.17100
C698        C  0.30910499  0.68814326  0.49784503    -0.17100
H699        H  0.28254580  0.86867429  0.46404776     0.15800
H700        H  0.21605893  0.86913822  0.46574705     0.15800
H701        H  0.27843625  0.62815172  0.47085687     0.15800
H702        H  0.21204720  0.62900978  0.47580195     0.15800
H703        H  0.37215387  0.78193753  0.52245697     0.14100
H704        H  0.37136675  0.71541962  0.52315905     0.14100
H705        H  0.12956933  0.78648442  0.53411842     0.14100
H706        H  0.12851027  0.71998077  0.53703608     0.14100
H707        H  0.25008116  0.78019564  0.51454804     0.27400
H708        H  0.24949626  0.72070814  0.51669252     0.27400
C709        C  0.35662167  0.89150156  0.01443601     0.24800
C710        C  0.38819419  0.88660521  0.49556931    -0.23300
C711        C  0.39137842  0.85782155  0.47492121     0.19700
C712        C  0.36586010  0.83340967  0.47423599     0.24700
C713        C  0.33729346  0.83666797  0.49510005    -0.23200
C714        C  0.33250920  0.86596535  0.01568858     0.19600
F715        F  0.30525376  0.86985584  0.03609763    -0.13200
F716        F  0.35116324  0.92002944  0.03246058    -0.15600
F717        F  0.36895795  0.80655782  0.45311967    -0.15600
F718        F  0.41874878  0.85371025  0.45475191    -0.13200
C719        C  0.38791040  0.63828104  0.47436647     0.24800
C720        C  0.38563359  0.61040758  0.49612075    -0.23300
C721        C  0.36313213  0.61038670  0.02763764     0.19700
C722        C  0.33830458  0.63542363  0.02935432     0.24700
C723        C  0.33524819  0.66096972  0.49675142    -0.23200
C724        C  0.36274962  0.66308275  0.47437072     0.19600
F725        F  0.36517248  0.68918995  0.45241978    -0.13200
F726        F  0.41407873  0.64105685  0.45245457    -0.15600
F727        F  0.31446914  0.63384589  0.05390760    -0.15600
F728        F  0.36283651  0.58508320  0.05063978    -0.13200
C729        C  0.10746974  0.85818078  0.48268673     0.24800
C730        C  0.11303301  0.88925387  0.49889621    -0.23300
C731        C  0.14360760  0.89347410  0.01232091     0.19700
C732        C  0.16797612  0.86803347  0.01343017     0.24700
C733        C  0.16274353  0.83838602  0.49975609    -0.23200
C734        C  0.13269379  0.83374538  0.48162969     0.19600
F735        F  0.12769984  0.80544391  0.46292955    -0.13200
F736        F  0.07772864  0.85146490  0.46745370    -0.15600
F737        F  0.19680635  0.87364800  0.03099797    -0.15600
F738        F  0.15029981  0.92324039  0.02771943    -0.13200
C739        C  0.10663637  0.64222120  0.48654789     0.24800
C740        C  0.11012559  0.61326674  0.50661065    -0.23300
C741        C  0.13634375  0.61160654  0.03141427     0.19700
C742        C  0.16073061  0.63704329  0.03314721     0.24700
C743        C  0.15992726  0.66407208  0.50734918    -0.23200
C744        C  0.13160859  0.66693985  0.48628641     0.19600
F745        F  0.12835055  0.69350570  0.46500634    -0.13200
F746        F  0.07930381  0.64629489  0.46651230    -0.15600
F747        F  0.18319783  0.63708493  0.05896900    -0.15600
F748        F  0.13517708  0.58781757  0.05596509    -0.13200
C749        C  0.33112034  0.97751368  0.36766692     0.24800
C750        C  0.33795640  0.50399343  0.33638067    -0.23300
C751        C  0.36744619  0.52331394  0.33297418     0.19700
C752        C  0.39350888  0.52036096  0.35653768     0.24700
C753        C  0.38626996  0.99546481  0.38792099    -0.23200
C754        C  0.35594096  0.97774688  0.39283412     0.19600
F755        F  0.35080199  0.95963934  0.42141744    -0.13200
F756        F  0.30276157  0.95903752  0.37246354    -0.15600
F757        F  0.42217719  0.53831216  0.35182123    -0.15600
F758        F  0.37091315  0.54512458  0.30684126    -0.13200
C759        C  0.13785854  0.52487365  0.34143248     0.24800
C760        C  0.16395440  0.50098450  0.34094580    -0.23300
C761        C  0.16228771  0.97749270  0.36282407     0.19700
C762        C  0.13754492  0.97812988  0.38794054     0.24700
C763        C  0.11042111  0.00081072  0.38579179    -0.23200
C764        C  0.11385307  0.52460497  0.36714983     0.19600
F765        F  0.08945148  0.54860548  0.36755604    -0.13200
F766        F  0.13574587  0.54861867  0.31695152    -0.15600
F767        F  0.13951465  0.95590791  0.41387807    -0.15600
F768        F  0.18737602  0.95428373  0.36457047    -0.13200
C769        C  0.11323340  0.52776762  0.13663769     0.24800
C770        C  0.11059976  0.50002744  0.11474953    -0.23300
C771        C  0.14270321  0.98532273  0.10506097     0.19700
C772        C  0.16715881  0.98486244  0.13037246     0.24700
C773        C  0.16062311  0.50125712  0.16476475    -0.23200
C774        C  0.13834467  0.52851929  0.16132943     0.19600
F775        F  0.14145494  0.55608418  0.18145814    -0.13200
F776        F  0.09213369  0.55451358  0.13333988    -0.15600
F777        F  0.19532807  0.96596825  0.12567583    -0.15600
F778        F  0.14834931  0.96756841  0.07634411    -0.13200
C779        C  0.35548450  0.98364226  0.10663270     0.24800
C780        C  0.38674776  0.50211422  0.11154848    -0.23300
C781        C  0.39039083  0.52104539  0.14141796     0.19700
C782        C  0.36468707  0.52185015  0.16552900     0.24700
C783        C  0.33561575  0.50203708  0.16138877    -0.23200
C784        C  0.33124161  0.98262129  0.13217366     0.19600
F785        F  0.30266477  0.96451094  0.12709094    -0.13200
F786        F  0.34906563  0.96735257  0.07725951    -0.15600
F787        F  0.36826615  0.54195247  0.19311934    -0.15600
F788        F  0.41877954  0.53893716  0.14736207    -0.13200
C789        C  0.03296150  0.65934293  0.36020922     0.24800
C790        C  0.50433291  0.66149661  0.33627003    -0.23300
C791        C  0.47484683  0.64280348  0.34178798     0.19700
C792        C  0.47438701  0.61710126  0.36588790     0.24700
C793        C  0.50347569  0.60963388  0.38457023    -0.23200
C794        C  0.03227387  0.63389966  0.38469048     0.19600
F795        F  0.05821581  0.63121686  0.40668471    -0.13200
F796        F  0.05886742  0.68163972  0.35988740    -0.15600
F797        F  0.44545510  0.59981242  0.37134126    -0.15600
F798        F  0.44658325  0.64952866  0.32373465    -0.13200
C799        C  0.02614104  0.83686679  0.36261932     0.24800
C800        C  0.50014063  0.83747200  0.33609858    -0.23300
C801        C  0.47586733  0.86330601  0.33474456     0.19700
C802        C  0.47585374  0.88902364  0.35899392     0.24700
C803        C  0.49918246  0.88833942  0.38565358    -0.23200
C804        C  0.02542528  0.86197492  0.38735159     0.19600
F805        F  0.04913750  0.86172554  0.41181811    -0.13200
F806        F  0.04994803  0.81231432  0.36426764    -0.15600
F807        F  0.45251548  0.91398713  0.35702269    -0.15600
F808        F  0.45219413  0.86346516  0.31001145    -0.13200
C809        C  0.47890605  0.88882596  0.13727743     0.24800
C810        C  0.50140148  0.88684744  0.10994458    -0.23300
C811        C  0.02728519  0.86005420  0.10856068     0.19700
C812        C  0.02727845  0.83552235  0.13393694     0.24700
C813        C  0.50221533  0.83731044  0.16079218    -0.23200
C814        C  0.47913866  0.86415268  0.16233768     0.19600
F815        F  0.45641069  0.86611820  0.18790123    -0.13200
F816        F  0.45598477  0.91418786  0.13916724    -0.15600
F817        F  0.05013016  0.81005741  0.13261492    -0.15600
F818        F  0.05080071  0.85848548  0.08367226    -0.13200
C819        C  0.47414486  0.61525372  0.13401034     0.24800
C820        C  0.50025817  0.61389048  0.11018319    -0.23300
C821        C  0.02736421  0.63697063  0.11235470     0.19700
C822        C  0.02759655  0.66205718  0.13720557     0.24700
C823        C  0.50054466  0.66314660  0.16118605    -0.23200
C824        C  0.47426187  0.63966370  0.15940170     0.19600
F825        F  0.44870377  0.64055094  0.18219594    -0.13200
F826        F  0.44792625  0.59362092  0.13190485    -0.15600
F827        F  0.05334841  0.68452641  0.13826368    -0.15600
F828        F  0.05310188  0.63525089  0.08979730    -0.13200
N829        N  0.00504821  0.75098971  0.69717519    -0.35400
N830        N  0.99926168  0.80242176  0.74812067    -0.56000
N831        N  0.00280609  0.75073194  0.80057673    -0.35400
N832        N  0.00503112  0.69924218  0.74943616    -0.56000
C833        C  0.99681558  0.77803805  0.67822735     0.28200
C834        C  0.99723977  0.72325505  0.67896268     0.28200
C835        C  0.99146491  0.77764073  0.81828458     0.28200
C836        C  0.99636116  0.72290609  0.81920984     0.28200
C837        C  0.00683594  0.82196124  0.72127978     0.36800
C838        C  0.00335788  0.82196524  0.77575072     0.36800
C839        C  0.01291481  0.68064222  0.72190249     0.36800
C840        C  0.01370713  0.68063280  0.77664911     0.36800
C841        C  0.98357516  0.76749100  0.64761651    -0.20700
C842        C  0.98358474  0.73282877  0.64816860    -0.20700
C843        C  0.97772288  0.76686331  0.84859030    -0.20700
C844        C  0.98066437  0.73228967  0.84911072    -0.20700
C845        C  0.01577469  0.85402471  0.73188112    -0.21700
C846        C  0.01351308  0.85405450  0.76645084    -0.21700
C847        C  0.02682931  0.65013053  0.73160198    -0.21700
C848        C  0.02757292  0.65022431  0.76630470    -0.21700
C849        C  0.00284964  0.81186164  0.68732889    -0.17100
C850        C  0.00503880  0.68981021  0.68833805    -0.17100
C851        C  0.00597200  0.68959618  0.81043154    -0.17100
C852        C  0.99592642  0.81175995  0.80902022    -0.17100
H853        H  0.97500352  0.78313544  0.62698899     0.15800
H854        H  0.97515107  0.71656455  0.62788842     0.15800
H855        H  0.96699947  0.78235643  0.86842000     0.15800
H856        H  0.97239368  0.71599552  0.86933836     0.15800
H857        H  0.02270235  0.87530027  0.71633600     0.14100
H858        H  0.01854132  0.87535542  0.78281069     0.14100
H859        H  0.03521984  0.62979158  0.71536810     0.14100
H860        H  0.03659781  0.62992366  0.78208613     0.14100
H861        H  0.01901889  0.75145299  0.71939572     0.27400
H862        H  0.01767069  0.75171871  0.77894955     0.27400
O863        O  0.50012478  0.59666474  0.55199832    -0.85300
O864        O  0.50431769  0.90370543  0.55277896    -0.85400
O865        O  0.44316985  0.50093860  0.59500199    -0.87100
O866        O  0.05110037  0.50032629  0.59815942    -0.85900
O867        O  0.09487386  0.99946049  0.55367603    -0.85500
O868        O  0.40521604  0.99844379  0.55497095    -0.86800
O869        O  0.50293860  0.94477090  0.59386031    -0.85300
O870        O  0.49778622  0.55625964  0.59343276    -0.84900
Zr871      Zr  0.50041543  0.99967644  0.56668770     2.84300
O872        O  0.03374045  0.96643378  0.53267959    -1.06900
O873        O  0.46451470  0.53409470  0.53222423    -1.07600
C874        C  0.49935025  0.58709946  0.58311099     1.07800
C875        C  0.50446167  0.91380589  0.58382431     1.07800
C876        C  0.41238204  0.49881605  0.58472889     1.10800
C877        C  0.08227237  0.49869599  0.58897106     1.08500
H878        H  0.45266700  0.95043451  0.54731431     0.34100
O879        O  0.46634213  0.96479731  0.53322257    -1.27800
H880        H  0.04558580  0.54837976  0.54943990     0.33800
O881        O  0.03191542  0.53441158  0.53491563    -1.29500
O882        O  0.49868738  0.90408345  0.94275817    -0.85300
O883        O  0.50279971  0.59528884  0.94377762    -0.86800
O884        O  0.40309049  0.94447174  0.99810306    -0.85400
O885        O  0.09535271  0.94537638  0.99752999    -0.85400
O886        O  0.09651814  0.55390631  0.00471513    -0.85100
O887        O  0.40486782  0.55466414  0.00115508    -0.84900
O888        O  0.44278099  0.99809461  0.90375204    -0.85300
O889        O  0.05303526  0.00445982  0.90195709    -0.84800
O890        O  0.40204287  0.99654851  0.94490094    -0.85800
O891        O  0.09403605  0.00242303  0.94286357    -0.85000
O892        O  0.44401696  0.90365112  0.99574780    -0.85400
O893        O  0.44590004  0.59549599  0.99993620    -0.85100
O894        O  0.05589361  0.59497508  0.00059240    -0.84700
O895        O  0.05478056  0.90430485  0.99638815    -0.85200
O896        O  0.49644843  0.94508221  0.90195132    -0.85500
O897        O  0.50206824  0.55403041  0.90303969    -0.86800
Zr898      Zr  0.49909040  0.93124499  0.99794738     2.83100
Zr899      Zr  0.50108882  0.56795488  0.99898342     2.83500
Zr900      Zr  0.43089223  0.99906432  0.99916116     2.84100
Zr901      Zr  0.06705219  0.00003579  0.99787608     2.83400
Zr902      Zr  0.49824654  0.99976342  0.93026804     2.84200
O903        O  0.03549782  0.53376975  0.96721501    -1.07400
O904        O  0.46488577  0.96552380  0.96455420    -1.06900
C905        C  0.49715207  0.91406849  0.91178854     1.07800
C906        C  0.50267679  0.58520363  0.91269429     1.10400
C907        C  0.41293990  0.91349048  0.99639720     1.08000
C908        C  0.08577459  0.91425049  0.99683150     1.08300
C909        C  0.08677448  0.58489236  0.00314519     1.07900
C910        C  0.41487008  0.58564445  0.00122059     1.07500
C911        C  0.41181355  0.99672807  0.91378330     1.07900
C912        C  0.08410487  0.00426327  0.91189706     1.07400
H913        H  0.45291972  0.54790486  0.95059438     0.34100
O914        O  0.46686317  0.53392205  0.96490192    -1.28500
H915        H  0.04702899  0.95254898  0.94859831     0.34100
O916        O  0.03304781  0.96624113  0.96319052    -1.29800
N917        N  0.24987319  0.49788087  0.80207520    -0.35400
N918        N  0.30025927  0.49630806  0.74923716    -0.56000
N919        N  0.24728929  0.49194639  0.69873211    -0.35400
N920        N  0.19684209  0.49710871  0.75195422    -0.56000
C921        C  0.27780489  0.50690995  0.81936040     0.28200
C922        C  0.22302211  0.50685781  0.82103306     0.28200
C923        C  0.27438552  0.49905293  0.67923350     0.28200
C924        C  0.21947157  0.49961099  0.68061221     0.28200
C925        C  0.31934431  0.48884647  0.77648892     0.36800
C926        C  0.31801436  0.48626270  0.72185065     0.36800
C927        C  0.17824174  0.49189526  0.78007702     0.36800
C928        C  0.17674018  0.48980086  0.72539296     0.36800
C929        C  0.26856006  0.52240779  0.84944661    -0.20700
C930        C  0.23390603  0.52209795  0.85063709    -0.20700
C931        C  0.26362155  0.51134008  0.64830878    -0.20700
C932        C  0.22894994  0.51149478  0.64910653    -0.20700
C933        C  0.34915054  0.47364387  0.76636184    -0.21700
C934        C  0.34837906  0.47217839  0.73169885    -0.21700
C935        C  0.14614679  0.48126341  0.77134069    -0.21700
C936        C  0.14516678  0.48003699  0.73665959    -0.21700
C937        C  0.31106231  0.49803880  0.81005173    -0.17100
C938        C  0.18920669  0.49913145  0.81330548    -0.17100
C939        C  0.18582996  0.49437748  0.69117402    -0.17100
C940        C  0.30833601  0.49258068  0.68811812    -0.17100
H941        H  0.28504708  0.53200853  0.86897963     0.15800
H942        H  0.21850433  0.53149737  0.87118527     0.15800
H943        H  0.27906987  0.51908026  0.62719695     0.15800
H944        H  0.21259032  0.51937443  0.62874702     0.15800
H945        H  0.36950010  0.46487590  0.78223994     0.14100
H946        H  0.36801096  0.46216537  0.71554866     0.14100
H947        H  0.12546430  0.47544956  0.78815368     0.14100
H948        H  0.12360558  0.47305451  0.72147177     0.14100
H949        H  0.24921079  0.48233016  0.78088363     0.27400
H950        H  0.24767498  0.47917905  0.72163061     0.27400
N951        N  0.24966823  0.80011535  0.99954446    -0.35400
N952        N  0.30139248  0.74879601  0.00271019    -0.56000
N953        N  0.24995213  0.69747928  0.00942296    -0.35400
N954        N  0.19806537  0.74904624  0.00327480    -0.56000
C955        C  0.27712396  0.81740323  0.98927496     0.28200
C956        C  0.22224042  0.81749238  0.98923919     0.28200
C957        C  0.27730698  0.67836879  0.00222156     0.28200
C958        C  0.22241423  0.67846172  0.00309450     0.28200
C959        C  0.32031208  0.77658439  0.00793840     0.36800
C960        C  0.32055841  0.72223154  0.01187887     0.36800
C961        C  0.17924404  0.77695234  0.00876437     0.36800
C962        C  0.17926371  0.72252983  0.01329643     0.36800
C963        C  0.26709837  0.84597787  0.97187025    -0.19600
C964        C  0.23240439  0.84594799  0.97168740    -0.20700
C965        C  0.26700384  0.64674543  0.99139235    -0.20700
C966        C  0.23234214  0.64677416  0.99202748    -0.20700
C967        C  0.35148427  0.76765940  0.02093084    -0.21700
C968        C  0.35172523  0.73313529  0.02316815    -0.21700
C969        C  0.14851047  0.76808104  0.02286208    -0.21700
C970        C  0.14835891  0.73352291  0.02527479    -0.21700
C971        C  0.31072321  0.80936550  0.99799189    -0.17100
C972        C  0.18862450  0.80975950  0.99833417    -0.17100
C973        C  0.18872043  0.68847331  0.00897863    -0.17100
C974        C  0.31120658  0.68824763  0.00718133    -0.17100
H975        H  0.28310136  0.86516852  0.96100331     0.15800
H976        H  0.21650668  0.86514693  0.96064839     0.15800
H977        H  0.28278454  0.62570415  0.98406203     0.15800
H978        H  0.21631073  0.62576234  0.98529774     0.15800
H979        H  0.37217324  0.78418002  0.02741145     0.14100
H980        H  0.37257572  0.71778101  0.03170138     0.14100
H981        H  0.12805433  0.78464754  0.03007834     0.14100
H982        H  0.12783508  0.71820872  0.03459147     0.14100
H983        H  0.24968252  0.78019035  0.01657222     0.27400
H984        H  0.25005636  0.72085495  0.02138866     0.27400
C985        C  0.35901866  0.89030961  0.51540907     0.24800
C986        C  0.38645573  0.88722727  0.99567870    -0.23300
C987        C  0.39081920  0.85745837  0.97675107     0.19700
C988        C  0.36582031  0.83260569  0.97662236     0.24700
C989        C  0.33672119  0.83637488  0.99660556    -0.23200
C990        C  0.33416891  0.86542356  0.51567051     0.19600
F991        F  0.30719645  0.86921871  0.53647054    -0.13200
F992        F  0.35496261  0.91766097  0.53546250    -0.15600
F993        F  0.37008178  0.80472048  0.95712032    -0.15600
F994        F  0.41895086  0.85270189  0.95780227    -0.13200
C995        C  0.38894873  0.63901313  0.98018916     0.24800
C996        C  0.38863292  0.61198379  0.00300535    -0.23300
C997        C  0.35753894  0.60768430  0.51763409     0.19700
C998        C  0.33292678  0.63297927  0.51836048     0.24700
C999        C  0.33819262  0.66209503  0.00607356    -0.23200
C1000       C  0.36377857  0.66369633  0.98150402     0.19600
F1001       F  0.36412512  0.68901031  0.95851701    -0.13200
F1002       F  0.41312339  0.64096751  0.95600036    -0.15600
F1003       F  0.30703277  0.63041913  0.54062738    -0.15600
F1004       F  0.35444026  0.58101834  0.53880399    -0.13200
C1005       C  0.10674431  0.85660266  0.98058195     0.24800
C1006       C  0.11236573  0.88786465  0.99650349    -0.23300
C1007       C  0.14402669  0.89471154  0.51521508     0.19700
C1008       C  0.16786987  0.86890466  0.51714526     0.24700
C1009       C  0.16255238  0.83700502  0.99697285    -0.23200
C1010       C  0.13199186  0.83202195  0.97968797     0.19600
F1011       F  0.12644453  0.80317932  0.96201790    -0.13200
F1012       F  0.07687708  0.84978993  0.96552792    -0.15600
F1013       F  0.19606976  0.87376943  0.53592371    -0.15600
F1014       F  0.15118860  0.92479469  0.52973620    -0.13200
C1015       C  0.11498687  0.63559892  0.97945479     0.24800
C1016       C  0.11306920  0.61098633  0.00469448    -0.23300
C1017       C  0.13815763  0.61059065  0.52818998     0.19700
C1018       C  0.16254205  0.63612135  0.52897824     0.24700
C1019       C  0.16197393  0.66226237  0.00829782    -0.23200
C1020       C  0.13889501  0.66132751  0.98144551     0.19600
F1021       F  0.14021550  0.68480185  0.95661585    -0.13200
F1022       F  0.09480805  0.63364374  0.95198345    -0.15600
F1023       F  0.18868512  0.63370494  0.55092428    -0.15600
F1024       F  0.14146199  0.58377596  0.54914805    -0.13200
C1025       C  0.33189692  0.97636525  0.86517302     0.24800
C1026       C  0.33798617  0.49797505  0.83646168    -0.23300
C1027       C  0.36808802  0.51593533  0.83152151     0.19700
C1028       C  0.39396334  0.51441686  0.85542614     0.24700
C1029       C  0.38555180  0.99631256  0.88734715    -0.23200
C1030       C  0.35670856  0.97587703  0.89031868     0.19600
F1031       F  0.35302947  0.95472032  0.91695407    -0.13200
F1032       F  0.30458001  0.95600765  0.86811188    -0.15600
F1033       F  0.42329018  0.53037517  0.84871708    -0.15600
F1034       F  0.37233904  0.53524844  0.80358913    -0.13200
C1035       C  0.13831468  0.52405390  0.84118267     0.24800
C1036       C  0.16408511  0.49979770  0.84113011    -0.23300
C1037       C  0.16314201  0.98300123  0.86308742     0.19700
C1038       C  0.13803326  0.98283087  0.88780950     0.24700
C1039       C  0.11079947  0.00544147  0.88596484    -0.23200
C1040       C  0.11397684  0.52412916  0.86659888     0.19600
F1041       F  0.08954854  0.54810808  0.86642436    -0.13200
F1042       F  0.13687901  0.54777386  0.81662535    -0.15600
F1043       F  0.13987837  0.95995856  0.91318225    -0.15600
F1044       F  0.18866508  0.96027828  0.86499538    -0.13200
C1045       C  0.10917427  0.52199224  0.64103621     0.24800
C1046       C  0.10795856  0.49724532  0.61566637    -0.23300
C1047       C  0.13698465  0.97612853  0.61030263     0.19700
C1048       C  0.16198203  0.97583961  0.63512125     0.24700
C1049       C  0.15874198  0.49515346  0.66523378    -0.23200
C1050       C  0.13473535  0.52124352  0.66535028     0.19600
F1051       F  0.13674203  0.54649744  0.68845250    -0.13200
F1052       F  0.08637324  0.54751789  0.64148892    -0.15600
F1053       F  0.18566504  0.95113248  0.63463179    -0.15600
F1054       F  0.13681792  0.95159813  0.58649373    -0.13200
C1055       C  0.35784394  0.98172668  0.60635693     0.24800
C1056       C  0.38573120  0.49732376  0.61109838    -0.23300
C1057       C  0.38814807  0.51680165  0.64076511     0.19700
C1058       C  0.36266242  0.51585482  0.66518539     0.24700
C1059       C  0.33507021  0.49393501  0.66149209    -0.23200
C1060       C  0.33326475  0.97989042  0.63146206     0.19600
F1061       F  0.30484031  0.96192734  0.62522012    -0.13200
F1062       F  0.35134557  0.96733062  0.57604548    -0.15600
F1063       F  0.36483198  0.53656595  0.69246918    -0.15600
F1064       F  0.41502562  0.53708926  0.64607671    -0.13200
C1065       C  0.02396006  0.66705988  0.86740855     0.24800
C1066       C  0.50252601  0.66193852  0.83559296    -0.23300
C1067       C  0.48232926  0.63301366  0.83229517     0.19700
C1068       C  0.48312809  0.60778516  0.85688120     0.24700
C1069       C  0.50288956  0.61149928  0.88609214    -0.23200
C1070       C  0.02266855  0.64248587  0.89273401     0.19600
F1071       F  0.03948832  0.64805083  0.92195040    -0.13200
F1072       F  0.04272780  0.69517901  0.87264603    -0.15600
F1073       F  0.46352684  0.58024499  0.85268562    -0.15600
F1074       F  0.46136958  0.62942585  0.80544179    -0.13200
C1075       C  0.01888952  0.83760904  0.86153584     0.24800
C1076       C  0.49621106  0.83688567  0.83579855    -0.23300
C1077       C  0.47250944  0.86324708  0.83464884     0.19700
C1078       C  0.47301879  0.88878282  0.85912318     0.24700
C1079       C  0.49658612  0.88768192  0.88557255    -0.23200
C1080       C  0.01903585  0.86273232  0.88616333     0.19600
F1081       F  0.04305767  0.86204912  0.91041393    -0.13200
F1082       F  0.04312640  0.81344761  0.86211983    -0.15600
F1083       F  0.45012959  0.91417583  0.85740280    -0.15600
F1084       F  0.44908634  0.86428018  0.80970641    -0.13200
C1085       C  0.48022581  0.88764782  0.63514736     0.24800
C1086       C  0.50534321  0.88786669  0.61019646    -0.23300
C1087       C  0.02827257  0.86229957  0.61001157     0.19700
C1088       C  0.02789659  0.83736969  0.63497101     0.24700
C1089       C  0.50539255  0.83804510  0.66054664    -0.23200
C1090       C  0.48010629  0.86279700  0.65998931     0.19600
F1091       F  0.45483458  0.86234037  0.68309398    -0.13200
F1092       F  0.45512243  0.91091284  0.63471667    -0.15600
F1093       F  0.05168890  0.81275720  0.63441749    -0.15600
F1094       F  0.05282297  0.86180121  0.58609716    -0.13200
C1095       C  0.47772891  0.61283066  0.63617501     0.24800
C1096       C  0.50054457  0.61355015  0.60914705    -0.23300
C1097       C  0.02340464  0.64026474  0.60811472     0.19700
C1098       C  0.02506029  0.66505074  0.63327246     0.24700
C1099       C  0.50300190  0.66324505  0.65987934    -0.23200
C1100       C  0.47876817  0.63755765  0.66123556     0.19600
F1101       F  0.45583834  0.63670015  0.68667424    -0.13200
F1102       F  0.45377977  0.58864384  0.63775849    -0.15600
F1103       F  0.04715330  0.69090384  0.62979583    -0.15600
F1104       F  0.04442302  0.64227697  0.58111951    -0.13200
N1105       N  0.50235088  0.24907782  0.19645418    -0.35400
N1106       N  0.49977995  0.30115355  0.24818768    -0.56000
N1107       N  0.50016959  0.24974951  0.29976459    -0.35400
N1108       N  0.49931767  0.19755330  0.24822957    -0.56000
C1109       C  0.49437239  0.27635959  0.17771523     0.28200
C1110       C  0.49497323  0.22149109  0.17775382     0.28200
C1111       C  0.49234520  0.27732693  0.31836886     0.28200
C1112       C  0.49199183  0.22240254  0.31833297     0.28200
C1113       C  0.50633457  0.32032165  0.22086804     0.36800
C1114       C  0.50562753  0.32076495  0.27550605     0.36800
C1115       C  0.50713178  0.17833710  0.22111370     0.36800
C1116       C  0.50611307  0.17865606  0.27569513     0.36800
C1117       C  0.48188804  0.26597133  0.14666330    -0.20700
C1118       C  0.48236123  0.23128259  0.14665626    -0.20700
C1119       C  0.47904034  0.26744283  0.34914820    -0.20700
C1120       C  0.47864135  0.23274661  0.34906267    -0.20700
C1121       C  0.51652725  0.35225061  0.23087347    -0.21700
C1122       C  0.51597865  0.35255454  0.26554634    -0.21700
C1123       C  0.51876540  0.14707084  0.23128378    -0.21700
C1124       C  0.51836392  0.14734553  0.26593224    -0.21700
C1125       C  0.50020175  0.31026194  0.18717516    -0.17100
C1126       C  0.50145623  0.18787665  0.18736059    -0.17100
C1127       C  0.49907811  0.18856937  0.30928480    -0.17100
C1128       C  0.49913830  0.31101891  0.30912887    -0.17100
H1129       H  0.47365178  0.28174076  0.12600105     0.15800
H1130       H  0.47458059  0.21512519  0.12601951     0.15800
H1131       H  0.47086192  0.28355580  0.36968914     0.15800
H1132       H  0.47012209  0.21694531  0.36958054     0.15800
H1133       H  0.52306586  0.37332030  0.21487863     0.14100
H1134       H  0.52197338  0.37387466  0.28155380     0.14100
H1135       H  0.52658453  0.12623835  0.21539012     0.14100
H1136       H  0.52593680  0.12671483  0.28204272     0.14100
H1137       H  0.51570354  0.24926681  0.21903272     0.27400
H1138       H  0.51424945  0.24955549  0.27762069     0.27400
O1139       O  0.00157598  0.09428898  0.05444223    -0.85300
O1140       O  0.00322478  0.40441323  0.05599666    -0.85400
O1141       O  0.94471991  0.99668227  0.09512661    -0.87100
O1142       O  0.55344392  0.00038286  0.09461099    -0.85900
O1143       O  0.59500767  0.49744552  0.05693676    -0.85500
O1144       O  0.90479542  0.49919227  0.05564102    -0.86800
O1145       O  0.00079905  0.44529203  0.09722215    -0.85300
O1146       O  0.99867335  0.05325754  0.09516076    -0.84900
Zr1147     Zr  0.99950291  0.50020845  0.06931846     2.84300
O1148       O  0.53391446  0.46572822  0.03565390    -1.06900
O1149       O  0.96536565  0.03331656  0.03354058    -1.07600
C1150       C  0.00054094  0.08422152  0.08538565     1.07800
C1151       C  0.00263246  0.41430943  0.08709454     1.07800
C1152       C  0.91366142  0.99591673  0.08532047     1.10800
C1153       C  0.58436363  0.99937092  0.08443975     1.08500
H1154       H  0.95214629  0.45106753  0.04900801     0.34100
O1155       O  0.96619384  0.46523059  0.03507705    -1.27800
H1156       H  0.54704513  0.04715997  0.04703661     0.33800
O1157       O  0.53293160  0.03318364  0.03294018    -1.29500
O1158       O  0.00214123  0.40433682  0.44438583    -0.85300
O1159       O  0.00158446  0.09572291  0.44398655    -0.86800
O1160       O  0.90433040  0.44430342  0.49637064    -0.85400
O1161       O  0.59626376  0.44532350  0.50219164    -0.85400
O1162       O  0.59539406  0.05531375  0.50063470    -0.85100
O1163       O  0.90353674  0.05392109  0.50197416    -0.84900
O1164       O  0.94635438  0.49891091  0.40355869    -0.85300
O1165       O  0.55794689  0.49998958  0.40661989    -0.84800
O1166       O  0.90462120  0.49828456  0.44374817    -0.85800
O1167       O  0.59801299  0.49863986  0.44847992    -0.85000
O1168       O  0.94536301  0.40352595  0.49708355    -0.85400
O1169       O  0.94410066  0.09512269  0.50071296    -0.85100
O1170       O  0.55431129  0.09601128  0.50003261    -0.84700
O1171       O  0.55605803  0.40395647  0.49978719    -0.85200
O1172       O  0.00087835  0.44528229  0.40345179    -0.85500
O1173       O  0.99891793  0.05477161  0.40291636    -0.86800
Zr1174     Zr  0.00004507  0.43163365  0.49998661     2.83100
Zr1175     Zr  0.99910353  0.06797466  0.49880256     2.83500
Zr1176     Zr  0.93123189  0.49956757  0.49909547     2.84100
Zr1177     Zr  0.56758574  0.49978801  0.50137142     2.83400
Zr1178     Zr  0.00108739  0.49963084  0.43207368     2.84200
O1179       O  0.53375113  0.03422135  0.46405327    -1.07400
O1180       O  0.96648779  0.46574705  0.46563697    -1.06900
C1181       C  0.00175606  0.41433013  0.41331170     1.07800
C1182       C  0.00071144  0.08574099  0.41291837     1.10400
C1183       C  0.91427060  0.41324947  0.49608301     1.08000
C1184       C  0.58701259  0.41413135  0.50091568     1.08300
C1185       C  0.58537335  0.08632835  0.50131834     1.07900
C1186       C  0.91322236  0.08497881  0.50213941     1.07500
C1187       C  0.91509068  0.49837053  0.41285181     1.07900
C1188       C  0.58872769  0.49944530  0.41734123     1.07400
H1189       H  0.95024447  0.04810278  0.45085579     0.34100
O1190       O  0.96455038  0.03410469  0.46478640    -1.28500
H1191       H  0.54952481  0.45128465  0.45220421     0.34100
O1192       O  0.53504163  0.46529217  0.46596895    -1.29800
N1193       N  0.74891231  0.99521760  0.29997287    -0.35400
N1194       N  0.80061201  0.99344502  0.24849608    -0.56000
N1195       N  0.74882717  0.99115184  0.19637172    -0.35400
N1196       N  0.69718918  0.99661571  0.24795950    -0.56000
C1197       C  0.77646166  0.00375825  0.31818375     0.28200
C1198       C  0.72159378  0.00512548  0.31787298     0.28200
C1199       C  0.77653222  0.99701591  0.17738472     0.28200
C1200       C  0.72167127  0.99883100  0.17722672     0.28200
C1201       C  0.81979487  0.98750592  0.27606319     0.36800
C1202       C  0.81987826  0.98588899  0.22133536     0.36800
C1203       C  0.67781116  0.99122420  0.27545965     0.36800
C1204       C  0.67767072  0.98987481  0.22083700     0.36800
C1205       C  0.76649772  0.01951575  0.34789567    -0.20700
C1206       C  0.73184068  0.02021960  0.34777027    -0.20700
C1207       C  0.76684289  0.00784716  0.14556219    -0.20700
C1208       C  0.73224033  0.00921065  0.14554207    -0.20700
C1209       C  0.85127721  0.97580912  0.26627403    -0.21700
C1210       C  0.85151579  0.97538119  0.23162091    -0.21700
C1211       C  0.64592346  0.98076158  0.26577082    -0.21700
C1212       C  0.64578606  0.98009276  0.23110904    -0.21700
C1213       C  0.81012392  0.99549447  0.30961653    -0.17100
C1214       C  0.68773622  0.99862437  0.30891458    -0.17100
C1215       C  0.68761983  0.99484847  0.18698623    -0.17100
C1216       C  0.81018392  0.99101615  0.18743095    -0.17100
H1217       H  0.78250507  0.02913677  0.36781767     0.15800
H1218       H  0.71598039  0.03041662  0.36756968     0.15800
H1219       H  0.78296217  0.01399871  0.12442385     0.15800
H1220       H  0.71665549  0.01671863  0.12444851     0.15800
H1221       H  0.87221672  0.96895544  0.28232201     0.14100
H1222       H  0.87264642  0.96829630  0.21583989     0.14100
H1223       H  0.62477211  0.97481774  0.28193392     0.14100
H1224       H  0.62457586  0.97345739  0.21528171     0.14100
H1225       H  0.74860581  0.97981748  0.27865991     0.27400
H1226       H  0.74842383  0.97926504  0.21971053     0.27400
N1227       N  0.75120283  0.29999426  0.50209424    -0.35400
N1228       N  0.80180481  0.24834599  0.50509844    -0.56000
N1229       N  0.74966617  0.19757574  0.51232575    -0.35400
N1230       N  0.69913071  0.24967103  0.50698787    -0.56000
C1231       C  0.77862836  0.31612708  0.49004502     0.28200
C1232       C  0.72380938  0.31719441  0.49153422     0.28200
C1233       C  0.77676276  0.17909379  0.50311232     0.28200
C1234       C  0.72196876  0.17971618  0.50381410     0.28200
C1235       C  0.82080394  0.27594753  0.51091785     0.36800
C1236       C  0.81975003  0.22172916  0.51619054     0.36800
C1237       C  0.68112289  0.27789090  0.51332709     0.36800
C1238       C  0.68035102  0.22350377  0.51788870     0.36800
C1239       C  0.76854698  0.34358228  0.47093198    -0.19600
C1240       C  0.73382773  0.34435498  0.47202472    -0.20700
C1241       C  0.76625371  0.14917231  0.48833813    -0.20700
C1242       C  0.73156540  0.14959515  0.48870916    -0.20700
C1243       C  0.85073112  0.26691477  0.52649312    -0.21700
C1244       C  0.85012174  0.23239957  0.52969124    -0.21700
C1245       C  0.65097595  0.26968579  0.52894085    -0.21700
C1246       C  0.65046703  0.23513162  0.53178096    -0.21700
C1247       C  0.81215486  0.30844719  0.49934447    -0.17100
C1248       C  0.69047583  0.31028658  0.50191380    -0.17100
C1249       C  0.68856355  0.18941317  0.51152222    -0.17100
C1250       C  0.81047830  0.18799980  0.51003185    -0.17100
H1251       H  0.78455687  0.36170063  0.45836720     0.15800
H1252       H  0.71783342  0.36311603  0.46039395     0.15800
H1253       H  0.78190879  0.12905647  0.47851826     0.15800
H1254       H  0.71532978  0.12986858  0.47915569     0.15800
H1255       H  0.87114186  0.28331973  0.53406230     0.14100
H1256       H  0.87001862  0.21685490  0.53997692     0.14100
H1257       H  0.63110473  0.28670696  0.53672920     0.14100
H1258       H  0.63012265  0.22022100  0.54208254     0.14100
H1259       H  0.75127883  0.28114346  0.52035992     0.27400
H1260       H  0.75012612  0.21945666  0.52696232     0.27400
C1261       C  0.85792908  0.39138372  0.01324148     0.24800
C1262       C  0.88786763  0.38673726  0.49540764    -0.23300
C1263       C  0.89401699  0.35504239  0.48043118     0.19700
C1264       C  0.86917772  0.32997327  0.48073104     0.24700
C1265       C  0.83835892  0.33540929  0.49754850    -0.23200
C1266       C  0.83372210  0.36588274  0.01424427     0.19600
F1267       F  0.80518728  0.37100667  0.03249207    -0.13200
F1268       F  0.85083755  0.42114792  0.02847655    -0.15600
F1269       F  0.87521676  0.30039316  0.46447058    -0.15600
F1270       F  0.92381536  0.34847072  0.46488145    -0.13200
C1271       C  0.88968800  0.14064493  0.48488647     0.24800
C1272       C  0.88686709  0.11109872  0.50414220    -0.23300
C1273       C  0.85959767  0.10782429  0.02654207     0.19700
C1274       C  0.83489323  0.13293965  0.02730623     0.24700
C1275       C  0.83709789  0.16162792  0.50850511    -0.23200
C1276       C  0.86479029  0.16544428  0.48667391     0.19600
F1277       F  0.86747132  0.19303684  0.46666230    -0.13200
F1278       F  0.91607371  0.14506225  0.46351566    -0.15600
F1279       F  0.80875187  0.13011528  0.04924537    -0.15600
F1280       F  0.85670925  0.08096233  0.04751025    -0.13200
C1281       C  0.60915043  0.35733355  0.48307729     0.24800
C1282       C  0.61400922  0.38804128  0.50034528    -0.23300
C1283       C  0.64472077  0.39265125  0.01742388     0.19700
C1284       C  0.66947428  0.36747158  0.01734541     0.24700
C1285       C  0.66460968  0.33758577  0.50040784    -0.23200
C1286       C  0.63450589  0.33281436  0.48236979     0.19600
F1287       F  0.62964263  0.30425233  0.46404868    -0.13200
F1288       F  0.58006696  0.35119674  0.46623191    -0.15600
F1289       F  0.69843855  0.37276009  0.03477868    -0.15600
F1290       F  0.65118737  0.42208165  0.03370977    -0.13200
C1291       C  0.60741894  0.14411842  0.48832377     0.24800
C1292       C  0.61146045  0.11285894  0.50447557    -0.23300
C1293       C  0.63903665  0.10797249  0.02334113     0.19700
C1294       C  0.66335030  0.13342069  0.02599292     0.24700
C1295       C  0.66126714  0.16352168  0.51038715    -0.23200
C1296       C  0.63262452  0.16859576  0.49013553     0.19600
F1297       F  0.62939220  0.19698208  0.47134949    -0.13200
F1298       F  0.57943502  0.15076119  0.46996265    -0.15600
F1299       F  0.68851468  0.13014616  0.04895856    -0.15600
F1300       F  0.64167219  0.08039473  0.04338926    -0.13200
C1301       C  0.83334658  0.48263832  0.36584028     0.24800
C1302       C  0.83635532  0.99618519  0.33674800    -0.23300
C1303       C  0.86580542  0.01548818  0.33282993     0.19700
C1304       C  0.89103170  0.01478228  0.35733539     0.24700
C1305       C  0.88900621  0.49865843  0.38611869    -0.23200
C1306       C  0.85851438  0.48112660  0.39048996     0.19600
F1307       F  0.85347619  0.46159339  0.41812273    -0.13200
F1308       F  0.80492820  0.46409731  0.36999953    -0.15600
F1309       F  0.91978503  0.03228707  0.35173684    -0.15600
F1310       F  0.87024925  0.03508579  0.30514330    -0.13200
C1311       C  0.63464629  0.02302864  0.33376399     0.24800
C1312       C  0.66151021  0.99995669  0.33576217    -0.23300
C1313       C  0.66575871  0.47699511  0.36577481     0.19700
C1314       C  0.64173963  0.47671659  0.39170152     0.24700
C1315       C  0.61537134  0.50041176  0.39170009    -0.23200
C1316       C  0.60913471  0.02288644  0.35815290     0.19600
F1317       F  0.58324876  0.04512207  0.35548436    -0.13200
F1318       F  0.63324382  0.04572070  0.30821360    -0.15600
F1319       F  0.64361307  0.45283361  0.41614871    -0.15600
F1320       F  0.69032598  0.45314629  0.36529559    -0.13200
C1321       C  0.61172359  0.02341685  0.13602135     0.24800
C1322       C  0.61078682  0.99881885  0.11044596    -0.23300
C1323       C  0.63235527  0.47211735  0.11761841     0.19700
C1324       C  0.65726512  0.47257568  0.14255779     0.24700
C1325       C  0.66111652  0.99643267  0.16046331    -0.23200
C1326       C  0.63693847  0.02240974  0.16071630     0.19600
F1327       F  0.63802188  0.04691356  0.18469945    -0.13200
F1328       F  0.58869265  0.04874837  0.13661150    -0.15600
F1329       F  0.67801255  0.44558835  0.14601917    -0.15600
F1330       F  0.62924675  0.44467382  0.09730911    -0.13200
C1331       C  0.85885008  0.47959085  0.10875663     0.24800
C1332       C  0.88751455  0.99436188  0.11153208    -0.23300
C1333       C  0.87506851  0.02425015  0.12585367     0.19700
C1334       C  0.85001103  0.02307377  0.15065257     0.24700
C1335       C  0.83693708  0.99197699  0.16123807    -0.23200
C1336       C  0.83357858  0.47885924  0.13333635     0.19600
F1337       F  0.80700109  0.45777112  0.12908595    -0.13200
F1338       F  0.85605171  0.45925581  0.08140052    -0.15600
F1339       F  0.83824652  0.05225224  0.16424473    -0.15600
F1340       F  0.88701178  0.05455498  0.11552552    -0.13200
C1341       C  0.52140109  0.16531585  0.36381427     0.24800
C1342       C  0.00135615  0.16261480  0.33708831    -0.23300
C1343       C  0.97549687  0.13848734  0.33784401     0.19700
C1344       C  0.97566992  0.11316063  0.36230634     0.24700
C1345       C  0.00128984  0.11193273  0.38666627    -0.23200
C1346       C  0.52193799  0.14058621  0.38890945     0.19600
F1347       F  0.54351928  0.14407644  0.41514358    -0.13200
F1348       F  0.54275202  0.19192932  0.36618764    -0.15600
F1349       F  0.95037766  0.09027347  0.36277773    -0.15600
F1350       F  0.94999484  0.13965943  0.31505599    -0.13200
C1351       C  0.52587587  0.33891908  0.35913647     0.24800
C1352       C  0.00423124  0.33791276  0.33648238    -0.23300
C1353       C  0.97626323  0.35949076  0.33934118     0.19700
C1354       C  0.97559124  0.38471273  0.36417789     0.24700
C1355       C  0.00261500  0.38823633  0.38680295    -0.23200
C1356       C  0.52643036  0.36398185  0.38403905     0.19600
F1357       F  0.55315457  0.36597598  0.40525041    -0.13200
F1358       F  0.55156955  0.31638377  0.35735185    -0.15600
F1359       F  0.94834334  0.40530230  0.36659364    -0.15600
F1360       F  0.94948316  0.35574478  0.31837031    -0.13200
C1361       C  0.98014221  0.38700704  0.13918951     0.24800
C1362       C  0.00406522  0.38780182  0.11304448    -0.23300
C1363       C  0.52283027  0.36192432  0.11016283     0.19700
C1364       C  0.52311974  0.33655536  0.13452069     0.24700
C1365       C  0.00598159  0.33622928  0.16170097    -0.23200
C1366       C  0.98057497  0.36089008  0.16280788     0.19600
F1367       F  0.95602867  0.35937196  0.18664798    -0.13200
F1368       F  0.95569320  0.41088229  0.14116362    -0.15600
F1369       F  0.54695488  0.31204186  0.13283272    -0.15600
F1370       F  0.54576397  0.36086999  0.08471393    -0.13200
C1371       C  0.98009201  0.10897347  0.13956256     0.24800
C1372       C  0.00191111  0.11037198  0.11170275    -0.23300
C1373       C  0.52716442  0.13354515  0.11281208     0.19700
C1374       C  0.52757302  0.15874209  0.13758205     0.24700
C1375       C  0.00451832  0.16061753  0.16203111    -0.23200
C1376       C  0.98129600  0.13395104  0.16447890     0.19600
F1377       F  0.95932391  0.13247852  0.19071286    -0.13200
F1378       F  0.95668338  0.08415641  0.14190982    -0.15600
F1379       F  0.55388422  0.18050973  0.13897225    -0.15600
F1380       F  0.55346721  0.13074005  0.09102893    -0.13200
N1381       N  0.50564578  0.24977740  0.69787425    -0.35400
N1382       N  0.50255877  0.30131120  0.74995538    -0.56000
N1383       N  0.50114893  0.24928566  0.80128342    -0.35400
N1384       N  0.50109110  0.19767456  0.74921333    -0.56000
C1385       C  0.49778655  0.27735614  0.67941307     0.28200
C1386       C  0.49761830  0.22242828  0.67903052     0.28200
C1387       C  0.49412791  0.27678625  0.82029158     0.28200
C1388       C  0.49315329  0.22187350  0.81984505     0.28200
C1389       C  0.50940006  0.32088150  0.72295764     0.36800
C1390       C  0.50770370  0.32065306  0.77759897     0.36800
C1391       C  0.50844268  0.17837593  0.72202477     0.36800
C1392       C  0.50573141  0.17802369  0.77662249     0.36800
C1393       C  0.48471714  0.26739292  0.64850022    -0.20700
C1394       C  0.48459149  0.23273787  0.64826232    -0.20700
C1395       C  0.48171040  0.26671963  0.85142469    -0.20700
C1396       C  0.48119270  0.23204276  0.85117605    -0.20700
C1397       C  0.51911386  0.35276485  0.73347684    -0.21700
C1398       C  0.51800260  0.35263781  0.76812280    -0.21700
C1399       C  0.51785673  0.14631516  0.73222281    -0.21700
C1400       C  0.51586332  0.14601932  0.76684193    -0.21700
C1401       C  0.50375298  0.31121328  0.68906967    -0.17100
C1402       C  0.50353165  0.18848329  0.68818344    -0.17100
C1403       C  0.49887575  0.18802732  0.81017016    -0.17100
C1404       C  0.50075625  0.31057498  0.81108442    -0.17100
H1405       H  0.47624625  0.28342593  0.62814206     0.15800
H1406       H  0.47599629  0.21693588  0.62768438     0.15800
H1407       H  0.47424876  0.28268260  0.87235131     0.15800
H1408       H  0.47334216  0.21613965  0.87188710     0.15800
H1409       H  0.52565161  0.37409247  0.71783233     0.14100
H1410       H  0.52358915  0.37385031  0.78441915     0.14100
H1411       H  0.52479063  0.12514731  0.71637087     0.14100
H1412       H  0.52100620  0.12462969  0.78293348     0.14100
H1413       H  0.51917626  0.24957299  0.72035912     0.27400
H1414       H  0.51442255  0.24915953  0.77868147     0.27400
O1415       O  0.00109565  0.09602278  0.55354457    -0.85300
O1416       O  0.99946375  0.40447892  0.55516265    -0.85400
O1417       O  0.94449870  0.00015836  0.59492075    -0.87100
O1418       O  0.55542803  0.00118618  0.59383377    -0.85900
O1419       O  0.59374154  0.49815877  0.55689858    -0.85500
O1420       O  0.90287360  0.49787366  0.55434578    -0.86800
O1421       O  0.99630424  0.44553324  0.59614556    -0.85300
O1422       O  0.99886018  0.05526909  0.59455020    -0.84900
Zr1423     Zr  0.99743574  0.50037401  0.56826441     2.84300
O1424       O  0.53311505  0.46574477  0.53471401    -1.06900
O1425       O  0.96523123  0.03405763  0.53320689    -1.07600
C1426       C  0.00030160  0.08624234  0.58460034     1.07800
C1427       C  0.99770882  0.41449086  0.58621099     1.07800
C1428       C  0.91342940  0.00001728  0.58512436     1.10800
C1429       C  0.58635943  0.00089841  0.58368546     1.08500
H1430       H  0.95041219  0.45131709  0.54723727     0.34100
O1431       O  0.96469267  0.46548464  0.53356077    -1.27800
H1432       H  0.54791189  0.04802209  0.54675631     0.33800
O1433       O  0.53391917  0.03399609  0.53260044    -1.29500
O1434       O  0.00232854  0.40430805  0.94553888    -0.85300
O1435       O  0.99981447  0.09640083  0.94480815    -0.86800
O1436       O  0.90571936  0.44368612  0.99889255    -0.85400
O1437       O  0.59643365  0.44454126  0.00261387    -0.85400
O1438       O  0.59497745  0.05391143  0.99993065    -0.85100
O1439       O  0.90361570  0.05367848  0.00356853    -0.84900
O1440       O  0.94679383  0.49985609  0.90430757    -0.85300
O1441       O  0.55816330  0.50045006  0.90679345    -0.84800
O1442       O  0.90559324  0.49808628  0.94498044    -0.85800
O1443       O  0.59824556  0.49874966  0.94864545    -0.85000
O1444       O  0.94676834  0.40293975  0.99909059    -0.85400
O1445       O  0.94443067  0.09464786  0.00197909    -0.85100
O1446       O  0.55433138  0.09502564  0.99784763    -0.84700
O1447       O  0.55567702  0.40373291  0.00159780    -0.85200
O1448       O  0.00024421  0.44539585  0.90474151    -0.85500
O1449       O  0.99582433  0.05608353  0.90321867    -0.86800
Zr1450     Zr  0.00117100  0.43158459  0.00095774     2.83100
Zr1451     Zr  0.99922391  0.06754573  0.99919163     2.83500
Zr1452     Zr  0.93261917  0.49917611  0.00042605     2.84100
Zr1453     Zr  0.56836156  0.49918870  0.00182050     2.83400
Zr1454     Zr  0.00150317  0.50002452  0.93281971     2.84200
O1455       O  0.53295118  0.03339410  0.96417455    -1.07400
O1456       O  0.96752054  0.46566135  0.96663042    -1.06900
C1457       C  0.00112047  0.41441110  0.91454941     1.07800
C1458       C  0.99768391  0.08692035  0.91363910     1.10400
C1459       C  0.91565896  0.41260721  0.99843136     1.08000
C1460       C  0.58674151  0.41349170  0.00219050     1.08300
C1461       C  0.58532253  0.08502841  0.99921036     1.07900
C1462       C  0.91354832  0.08463507  0.00360726     1.07500
C1463       C  0.91563785  0.49871283  0.91390177     1.07900
C1464       C  0.58895298  0.49985874  0.91751937     1.07400
H1465       H  0.94958852  0.04843366  0.95169174     0.34100
O1466       O  0.96408661  0.03424017  0.96521768    -1.28500
H1467       H  0.54967128  0.45120427  0.95268168     0.34100
O1468       O  0.53533288  0.46537858  0.96643095    -1.29800
N1469       N  0.74845789  0.00248230  0.80028097    -0.35400
N1470       N  0.80022262  0.00248311  0.74924216    -0.56000
N1471       N  0.74865711  0.00186195  0.69769858    -0.35400
N1472       N  0.69700497  0.00399821  0.74884553    -0.56000
C1473       C  0.77599015  0.01124788  0.81827993     0.28200
C1474       C  0.72121928  0.01241019  0.81815354     0.28200
C1475       C  0.77629156  0.01095118  0.68000826     0.28200
C1476       C  0.72145425  0.01139456  0.67961377     0.28200
C1477       C  0.81799662  0.99274930  0.77657458     0.36800
C1478       C  0.81806553  0.99255589  0.72195173     0.36800
C1479       C  0.67815916  0.99652674  0.77618149     0.36800
C1480       C  0.67816206  0.99629279  0.72154432     0.36800
C1481       C  0.76621966  0.02756828  0.84771993    -0.20700
C1482       C  0.73149688  0.02822082  0.84768312    -0.20700
C1483       C  0.76651508  0.02714963  0.65057387    -0.20700
C1484       C  0.73179881  0.02708678  0.65015747    -0.20700
C1485       C  0.84713119  0.97617954  0.76670358    -0.21700
C1486       C  0.84710212  0.97590840  0.73196374    -0.21700
C1487       C  0.64724589  0.98366784  0.76624017    -0.21700
C1488       C  0.64722015  0.98359460  0.73150100    -0.21700
C1489       C  0.80916727  0.00143542  0.81000098    -0.17100
C1490       C  0.68763767  0.00442936  0.80963948    -0.17100
C1491       C  0.68781770  0.00356787  0.68806736    -0.17100
C1492       C  0.80960389  0.00152279  0.68852535    -0.17100
H1493       H  0.78237375  0.03713321  0.86755044     0.15800
H1494       H  0.71562760  0.03841837  0.86747187     0.15800
H1495       H  0.78266270  0.03709170  0.63096966     0.15800
H1496       H  0.71599241  0.03699829  0.63025788     0.15800
H1497       H  0.86649609  0.96575434  0.78281797     0.14100
H1498       H  0.86648819  0.96523545  0.71594262     0.14100
H1499       H  0.62664700  0.97582403  0.78229635     0.14100
H1500       H  0.62662113  0.97567534  0.71545828     0.14100
H1501       H  0.74818351  0.98647020  0.77938092     0.27400
H1502       H  0.74835700  0.98604266  0.71864053     0.27400
N1503       N  0.75134841  0.29969753  0.00023564    -0.35400
N1504       N  0.80227316  0.24794470  0.00111513    -0.56000
N1505       N  0.74990481  0.19687841  0.00696851    -0.35400
N1506       N  0.69904502  0.24875392  0.00287304    -0.56000
C1507       C  0.77881142  0.31672484  0.98941483     0.28200
C1508       C  0.72385177  0.31740438  0.99071677     0.28200
C1509       C  0.77716866  0.17821399  0.99870649     0.28200
C1510       C  0.72235227  0.17852658  0.99899943     0.28200
C1511       C  0.82119605  0.27541080  0.00790850     0.36800
C1512       C  0.82018168  0.22110479  0.01179800     0.36800
C1513       C  0.68101695  0.27672633  0.01029304     0.36800
C1514       C  0.68018285  0.22213816  0.01262800     0.36800
C1515       C  0.76864032  0.34540559  0.97225912    -0.19600
C1516       C  0.73389779  0.34586827  0.97313299    -0.20700
C1517       C  0.76691515  0.14763566  0.98513840    -0.20700
C1518       C  0.73221687  0.14784411  0.98530045    -0.20700
C1519       C  0.85105260  0.26600676  0.02337801    -0.21700
C1520       C  0.85047477  0.23148428  0.02569179    -0.21700
C1521       C  0.65078732  0.26780397  0.02541623    -0.21700
C1522       C  0.65014382  0.23315922  0.02659333    -0.21700
C1523       C  0.81249074  0.30840196  0.99788640    -0.17100
C1524       C  0.69036745  0.30971125  0.00039799    -0.17100
C1525       C  0.68881693  0.18815900  0.00617068    -0.17100
C1526       C  0.81077487  0.18737037  0.00584178    -0.17100
H1527       H  0.78458767  0.36442507  0.96102081     0.15800
H1528       H  0.71790624  0.36529454  0.96264309     0.15800
H1529       H  0.78275118  0.12713868  0.97647173     0.15800
H1530       H  0.71613719  0.12754742  0.97672967     0.15800
H1531       H  0.87128105  0.28223598  0.03177752     0.14100
H1532       H  0.87022054  0.21577397  0.03601493     0.14100
H1533       H  0.63094859  0.28444654  0.03406331     0.14100
H1534       H  0.62981588  0.21782135  0.03628308     0.14100
H1535       H  0.75142228  0.27960198  0.01708938     0.27400
H1536       H  0.75019398  0.21916713  0.02092796     0.27400
C1537       C  0.85638114  0.39259062  0.51074198     0.24800
C1538       C  0.88926492  0.38601996  0.99746116    -0.23300
C1539       C  0.89507643  0.35492075  0.98115198     0.19700
C1540       C  0.86987249  0.33018823  0.98019566     0.24700
C1541       C  0.83903202  0.33520260  0.99720342    -0.23200
C1542       C  0.83242892  0.36694365  0.51275550     0.19600
F1543       F  0.80347708  0.37283922  0.53009997    -0.13200
F1544       F  0.84895220  0.42293184  0.52472625    -0.15600
F1545       F  0.87566397  0.30128182  0.96266853    -0.15600
F1546       F  0.92483110  0.34870735  0.96536339    -0.13200
C1547       C  0.89016109  0.13913294  0.98378294     0.24800
C1548       C  0.88746470  0.11087037  0.00484290    -0.23300
C1549       C  0.85888731  0.10694558  0.52555605     0.19700
C1550       C  0.83451402  0.13228019  0.52815487     0.24700
C1551       C  0.83731365  0.16095836  0.00577621    -0.23200
C1552       C  0.86513254  0.16378006  0.98397876     0.19600
F1553       F  0.86785303  0.19027983  0.96255028    -0.13200
F1554       F  0.91652515  0.14230876  0.96214472    -0.15600
F1555       F  0.80848628  0.12831203  0.55005326    -0.15600
F1556       F  0.85559503  0.07876319  0.54464150    -0.13200
C1557       C  0.60796715  0.35633163  0.98483754     0.24800
C1558       C  0.61335523  0.38711838  0.00172901    -0.23300
C1559       C  0.64508488  0.39357482  0.51667473     0.19700
C1560       C  0.66969680  0.36828022  0.51748893     0.24700
C1561       C  0.66422370  0.33693042  0.99993392    -0.23200
C1562       C  0.63351811  0.33212376  0.98285762     0.19600
F1563       F  0.62816725  0.30380772  0.96428223    -0.13200
F1564       F  0.57807162  0.34972864  0.96972749    -0.15600
F1565       F  0.69831792  0.37355155  0.53551155    -0.15600
F1566       F  0.65154461  0.42321698  0.53246506    -0.13200
C1567       C  0.60999398  0.14013194  0.98029859     0.24800
C1568       C  0.61183748  0.11128846  0.00079525    -0.23300
C1569       C  0.64039016  0.10747498  0.52429620     0.19700
C1570       C  0.66441923  0.13299603  0.52817594     0.24700
C1571       C  0.66175293  0.16202853  0.00512738    -0.23200
C1572       C  0.63503460  0.16492691  0.98201672     0.19600
F1573       F  0.63370472  0.19143878  0.96046888    -0.13200
F1574       F  0.58454059  0.14379096  0.95775644    -0.15600
F1575       F  0.69096094  0.12778640  0.54913878    -0.15600
F1576       F  0.64506027  0.07778865  0.54061290    -0.13200
C1577       C  0.83426772  0.48003209  0.86682006     0.24800
C1578       C  0.83531640  0.00044956  0.83696088    -0.23300
C1579       C  0.86537715  0.01871494  0.83328289     0.19700
C1580       C  0.89026715  0.01729843  0.85810554     0.24700
C1581       C  0.88924655  0.49837751  0.88727260    -0.23200
C1582       C  0.85905104  0.48038386  0.89197874     0.19600
F1583       F  0.85381849  0.46237066  0.92059567    -0.13200
F1584       F  0.80627678  0.46095186  0.87140617    -0.15600
F1585       F  0.91903551  0.03511263  0.85344619    -0.15600
F1586       F  0.87049758  0.03834867  0.80573756    -0.13200
C1587       C  0.63334839  0.02605863  0.83403607     0.24800
C1588       C  0.66153596  0.00475194  0.83658812    -0.23300
C1589       C  0.66673320  0.47798724  0.86702820     0.19700
C1590       C  0.64260106  0.47788722  0.89278225     0.24700
C1591       C  0.61571668  0.50096487  0.89199696    -0.23200
C1592       C  0.60792492  0.02509265  0.85848848     0.19600
F1593       F  0.58103209  0.04602640  0.85541763    -0.13200
F1594       F  0.63065905  0.04798260  0.80791900    -0.15600
F1595       F  0.64489725  0.45469344  0.91784644    -0.15600
F1596       F  0.69180815  0.45467788  0.86737671    -0.13200
C1597       C  0.60944725  0.02436599  0.63737877     0.24800
C1598       C  0.61266168  0.00214770  0.60984752    -0.23300
C1599       C  0.63245018  0.47102518  0.61440933     0.19700
C1600       C  0.65722097  0.46929208  0.63944235     0.24700
C1601       C  0.66194747  0.00337461  0.66095175    -0.23200
C1602       C  0.63422189  0.02540694  0.66242289     0.19600
F1603       F  0.63130836  0.04807204  0.68801304    -0.13200
F1604       F  0.58277706  0.04574184  0.63948467    -0.15600
F1605       F  0.67961712  0.44340869  0.63893702    -0.15600
F1606       F  0.63098137  0.44653764  0.59052783    -0.13200
C1607       C  0.86061393  0.47248368  0.61021446     0.24800
C1608       C  0.88688793  0.00035002  0.61150085    -0.23300
C1609       C  0.89273646  0.01584893  0.64294073     0.19700
C1610       C  0.86745154  0.01711876  0.66744047     0.24700
C1611       C  0.83625583  0.00121253  0.66186386    -0.23200
C1612       C  0.83574834  0.47049237  0.63521796     0.19600
F1613       F  0.81230734  0.44568097  0.63343736    -0.13200
F1614       F  0.86111924  0.44918179  0.58514409    -0.15600
F1615       F  0.87349687  0.03413080  0.69662420    -0.15600
F1616       F  0.92273234  0.03053821  0.64982708    -0.13200
C1617       C  0.52815394  0.15435337  0.85446521     0.24800
C1618       C  0.99728614  0.16328691  0.83726644    -0.23300
C1619       C  0.96908287  0.14239385  0.84164200     0.19700
C1620       C  0.96906588  0.11773501  0.86687100     0.24700
C1621       C  0.99732910  0.11348723  0.88774730    -0.23200
C1622       C  0.52822422  0.12936998  0.87928906     0.19600
F1623       F  0.55744927  0.12163423  0.89524979    -0.13200
F1624       F  0.55710603  0.17102785  0.84725422    -0.15600
F1625       F  0.94124720  0.09845802  0.87145185    -0.15600
F1626       F  0.94156344  0.14610546  0.82166281    -0.13200
C1627       C  0.52532928  0.33674538  0.86305279     0.24800
C1628       C  0.99890192  0.33821015  0.83774096    -0.23300
C1629       C  0.97301965  0.36234308  0.83974960     0.19700
C1630       C  0.97395789  0.38745954  0.86461882     0.24700
C1631       C  0.00048843  0.38838949  0.88805206    -0.23200
C1632       C  0.52561496  0.36176570  0.88795063     0.19600
F1633       F  0.55067702  0.36191640  0.91113371    -0.13200
F1634       F  0.54975271  0.31276178  0.86299460    -0.15600
F1635       F  0.94871766  0.41054205  0.86624827    -0.15600
F1636       F  0.94685427  0.36142481  0.81771499    -0.13200
C1637       C  0.97419562  0.38923149  0.63913923     0.24800
C1638       C  0.99756653  0.38815834  0.61242651    -0.23300
C1639       C  0.52395153  0.36215338  0.61051444     0.19700
C1640       C  0.52558985  0.33759346  0.63573864     0.24700
C1641       C  0.99798165  0.33773903  0.66238562    -0.23200
C1642       C  0.97392753  0.36375969  0.66351138     0.19600
F1643       F  0.95012381  0.36430771  0.68815869    -0.13200
F1644       F  0.95106441  0.41439989  0.64110407    -0.15600
F1645       F  0.54991759  0.31357140  0.63406810    -0.15600
F1646       F  0.54621226  0.36079912  0.58449532    -0.13200
C1647       C  0.97943725  0.11046103  0.63888996     0.24800
C1648       C  0.00102029  0.11264264  0.61091405    -0.23300
C1649       C  0.52452607  0.13866809  0.60873041     0.19700
C1650       C  0.52543411  0.16339302  0.63398243     0.24700
C1651       C  0.00197641  0.16270289  0.66169029    -0.23200
C1652       C  0.97959916  0.13538545  0.66381927     0.19600
F1653       F  0.95738393  0.13318968  0.68980099    -0.13200
F1654       F  0.95713363  0.08482985  0.64138493    -0.15600
F1655       F  0.54849895  0.18853593  0.63186893    -0.15600
F1656       F  0.54675335  0.14035909  0.58269624    -0.13200
N1657       N  0.50277060  0.75011022  0.19744435    -0.35400
N1658       N  0.50160599  0.80159800  0.24863211    -0.56000
N1659       N  0.50490689  0.74955210  0.30085648    -0.35400
N1660       N  0.50258515  0.69812797  0.24927961    -0.56000
C1661       C  0.49519776  0.77748546  0.17866135     0.28200
C1662       C  0.49440013  0.72271807  0.17898746     0.28200
C1663       C  0.49666660  0.77691747  0.31954425     0.28200
C1664       C  0.49895516  0.72201984  0.32005253     0.28200
C1665       C  0.50847815  0.82096032  0.22146663     0.36800
C1666       C  0.50779079  0.82081884  0.27609246     0.36800
C1667       C  0.50675622  0.67852714  0.22166556     0.36800
C1668       C  0.50881313  0.67825460  0.27619921     0.36800
C1669       C  0.48169287  0.76737921  0.14798415    -0.20700
C1670       C  0.48128222  0.73274895  0.14814901    -0.20700
C1671       C  0.48560175  0.76662866  0.35114959    -0.20700
C1672       C  0.48733804  0.73198064  0.35155490    -0.20700
C1673       C  0.51920473  0.85259483  0.23171071    -0.21700
C1674       C  0.51866488  0.85254761  0.26636328    -0.21700
C1675       C  0.51531576  0.64601088  0.23108888    -0.21700
C1676       C  0.51655794  0.64582754  0.26567979    -0.21700
C1677       C  0.50242904  0.81115003  0.18769167    -0.17100
C1678       C  0.50074681  0.68898459  0.18818353    -0.17100
C1679       C  0.50481341  0.68824806  0.31015811    -0.17100
C1680       C  0.50136935  0.81089116  0.30969729    -0.17100
H1681       H  0.47347685  0.78327067  0.12740650     0.15800
H1682       H  0.47274755  0.71675598  0.12768863     0.15800
H1683       H  0.47753718  0.78244508  0.37196252     0.15800
H1684       H  0.48071606  0.71596510  0.37260840     0.15800
H1685       H  0.52618676  0.87366274  0.21590830     0.14100
H1686       H  0.52525994  0.87356721  0.28253008     0.14100
H1687       H  0.51975211  0.62452195  0.21478355     0.14100
H1688       H  0.52204100  0.62417880  0.28130350     0.14100
H1689       H  0.51686189  0.74999318  0.21955340     0.27400
H1690       H  0.51736570  0.74984948  0.27778365     0.27400
O1691       O  0.00205567  0.59647129  0.05449958    -0.85300
O1692       O  0.00309167  0.90290108  0.05197685    -0.85400
O1693       O  0.94496716  0.50126605  0.09725939    -0.87100
O1694       O  0.55345150  0.50153290  0.09716771    -0.85900
O1695       O  0.59417449  0.99833968  0.05334260    -0.85500
O1696       O  0.90348565  0.99662737  0.05440408    -0.86800
O1697       O  0.00207976  0.94359622  0.09339680    -0.85300
O1698       O  0.99870530  0.55597304  0.09579416    -0.84900
Zr1699     Zr  0.99960188  0.99877886  0.06680926     2.84300
O1700       O  0.53284170  0.96517381  0.03246713    -1.06900
O1701       O  0.96615239  0.53393704  0.03435643    -1.07600
C1702       C  0.00059856  0.58681872  0.08551664     1.07800
C1703       C  0.00323455  0.91268266  0.08315161     1.07800
C1704       C  0.91415719  0.50030924  0.08692670     1.10800
C1705       C  0.58451786  0.49938332  0.08769868     1.08500
H1706       H  0.95202775  0.95008362  0.04689800     0.34100
O1707       O  0.96560401  0.96458097  0.03285834    -1.27800
H1708       H  0.54799270  0.54832729  0.04883474     0.33800
O1709       O  0.53407351  0.53427782  0.03461557    -1.29500
O1710       O  0.00175638  0.90414158  0.44349273    -0.85300
O1711       O  0.00391157  0.59486205  0.44345067    -0.86800
O1712       O  0.90421725  0.94449005  0.50087375    -0.85400
O1713       O  0.59635443  0.94608592  0.49996128    -0.85400
O1714       O  0.59489705  0.55508758  0.50215841    -0.85100
O1715       O  0.90293498  0.55435765  0.49836363    -0.84900
O1716       O  0.94375577  0.99843859  0.40384995    -0.85300
O1717       O  0.55355786  0.00100673  0.40200280    -0.84800
O1718       O  0.90302511  0.99746009  0.44497928    -0.85800
O1719       O  0.59465890  0.00037473  0.44283885    -0.85000
O1720       O  0.94540546  0.90380514  0.49805186    -0.85400
O1721       O  0.94359370  0.59549371  0.49656785    -0.85100
O1722       O  0.55378254  0.59562486  0.49773183    -0.84700
O1723       O  0.55580545  0.90482107  0.49738339    -0.85200
O1724       O  0.99886847  0.94513243  0.40274283    -0.85500
O1725       O  0.00223376  0.55352559  0.40273973    -0.86800
Zr1726     Zr  0.00025644  0.93197824  0.49845760     2.83100
Zr1727     Zr  0.99887796  0.56812027  0.49926128     2.83500
Zr1728     Zr  0.93157520  0.99936266  0.49939806     2.84100
Zr1729     Zr  0.56785138  0.00031897  0.49811721     2.83400
Zr1730     Zr  0.99886920  0.00001935  0.43074108     2.84200
O1731       O  0.53463757  0.53339991  0.46553272    -1.07400
O1732       O  0.96544472  0.96551340  0.46478298    -1.06900
C1733       C  0.00057203  0.91413428  0.41249142     1.07800
C1734       C  0.00398736  0.58460140  0.41234573     1.10400
C1735       C  0.91433609  0.91357883  0.49960432     1.08000
C1736       C  0.58659689  0.91510379  0.49893206     1.08300
C1737       C  0.58481793  0.58601901  0.49995348     1.07900
C1738       C  0.91257827  0.58545136  0.49684117     1.07500
C1739       C  0.91279526  0.99742371  0.41385100     1.07900
C1740       C  0.58458795  0.00079633  0.41184250     1.07400
H1741       H  0.95186006  0.54748122  0.45031844     0.34100
O1742       O  0.96558688  0.53362435  0.46494769    -1.28500
H1743       H  0.54818631  0.95206363  0.44949755     0.34100
O1744       O  0.53411512  0.96593032  0.46382843    -1.29800
N1745       N  0.74996258  0.50297224  0.30174826    -0.35400
N1746       N  0.80082951  0.50289115  0.24955137    -0.56000
N1747       N  0.74822937  0.49949263  0.19871994    -0.35400
N1748       N  0.69728949  0.50293942  0.25124469    -0.56000
C1749       C  0.77756221  0.51208634  0.31951498     0.28200
C1750       C  0.72279420  0.51064720  0.32077357     0.28200
C1751       C  0.77550599  0.50643115  0.17952152     0.28200
C1752       C  0.72066769  0.50722321  0.18031576     0.28200
C1753       C  0.81959529  0.49500419  0.27685826     0.36800
C1754       C  0.81848381  0.49238526  0.22232235     0.36800
C1755       C  0.67864160  0.49618198  0.27897480     0.36800
C1756       C  0.67754854  0.49612458  0.22429037     0.36800
C1757       C  0.76777713  0.52642443  0.34999248    -0.20700
C1758       C  0.73311264  0.52523115  0.35091638    -0.20700
C1759       C  0.76515404  0.51893491  0.14852841    -0.20700
C1760       C  0.73046184  0.51916131  0.14893280    -0.20700
C1761       C  0.84918187  0.47924669  0.26695851    -0.21700
C1762       C  0.84849122  0.47762395  0.23233064    -0.21700
C1763       C  0.64681326  0.48529880  0.26958332    -0.21700
C1764       C  0.64606788  0.48544170  0.23488580    -0.21700
C1765       C  0.81098729  0.50379693  0.31036029    -0.17100
C1766       C  0.68928123  0.50217702  0.31253657    -0.17100
C1767       C  0.68707098  0.50126608  0.19033216    -0.17100
C1768       C  0.80914561  0.49901275  0.18860307    -0.17100
H1769       H  0.78393885  0.53562000  0.36999196     0.15800
H1770       H  0.71734867  0.53351925  0.37166308     0.15800
H1771       H  0.78087860  0.52644731  0.12753419     0.15800
H1772       H  0.71429742  0.52683938  0.12833706     0.15800
H1773       H  0.86921713  0.47000492  0.28296946     0.14100
H1774       H  0.86795922  0.46708882  0.21631275     0.14100
H1775       H  0.62617466  0.47833966  0.28599995     0.14100
H1776       H  0.62481018  0.47851340  0.21924843     0.14100
H1777       H  0.74975058  0.48793731  0.28018375     0.27400
H1778       H  0.74836594  0.48632524  0.22138151     0.27400
N1779       N  0.74925700  0.80261494  0.50095987    -0.35400
N1780       N  0.80073348  0.75084591  0.49579850    -0.56000
N1781       N  0.74843845  0.69946542  0.49603937    -0.35400
N1782       N  0.69693487  0.75101413  0.49743294    -0.56000
C1783       C  0.77673337  0.82174803  0.49480227     0.28200
C1784       C  0.72190574  0.82178498  0.49441504     0.28200
C1785       C  0.77565772  0.68090350  0.48703491     0.28200
C1786       C  0.72069116  0.68084066  0.48921206     0.28200
C1787       C  0.82004711  0.77763206  0.50423167     0.36800
C1788       C  0.81981089  0.72310500  0.50106175     0.36800
C1789       C  0.67775186  0.77834410  0.50415652     0.36800
C1790       C  0.67728248  0.72384097  0.50316979     0.36800
C1791       C  0.76673273  0.85361725  0.48455518    -0.19600
C1792       C  0.73207803  0.85365028  0.48432967    -0.20700
C1793       C  0.76499877  0.65019437  0.47402768    -0.20700
C1794       C  0.73035114  0.65006960  0.47562821    -0.20700
C1795       C  0.85151366  0.76693317  0.51481294    -0.21700
C1796       C  0.85131887  0.73238419  0.51298381    -0.21700
C1797       C  0.64567236  0.76857914  0.51382237    -0.21700
C1798       C  0.64544943  0.73401236  0.51347750    -0.21700
C1799       C  0.81046514  0.81166596  0.50012100    -0.17100
C1800       C  0.68811026  0.81199682  0.49957638    -0.17100
C1801       C  0.68706807  0.69012036  0.49693544    -0.17100
C1802       C  0.80973386  0.68970902  0.49337827    -0.17100
H1803       H  0.78271080  0.87475572  0.47821230     0.15800
H1804       H  0.71619031  0.87485258  0.47785723     0.15800
H1805       H  0.78058493  0.62962753  0.46508064     0.15800
H1806       H  0.71414378  0.62949070  0.46802159     0.15800
H1807       H  0.87246144  0.78242519  0.52286529     0.14100
H1808       H  0.87211931  0.71602938  0.51952025     0.14100
H1809       H  0.62460730  0.78468603  0.52033233     0.14100
H1810       H  0.62412847  0.71824038  0.51969746     0.14100
H1811       H  0.74914332  0.77921457  0.51262674     0.27400
H1812       H  0.74891482  0.72158588  0.51012280     0.27400
C1813       C  0.85781184  0.89162148  0.01988680     0.24800
C1814       C  0.88809477  0.88735064  0.49998694    -0.23300
C1815       C  0.88676388  0.86301064  0.47421581     0.19700
C1816       C  0.86120923  0.83875407  0.47402828     0.24700
C1817       C  0.83723232  0.83787589  0.50015084    -0.23200
C1818       C  0.83334924  0.86628245  0.02125341     0.19600
F1819       F  0.80602455  0.87062748  0.04147515    -0.13200
F1820       F  0.85331620  0.91997888  0.03866441    -0.15600
F1821       F  0.85954600  0.81629675  0.44815399    -0.15600
F1822       F  0.90963666  0.86338745  0.44871437    -0.13200
C1823       C  0.88934971  0.63941829  0.47336863     0.24800
C1824       C  0.88596895  0.61166180  0.49516894    -0.23300
C1825       C  0.86264474  0.61056140  0.02786340     0.19700
C1826       C  0.83798131  0.63578776  0.02890946     0.24700
C1827       C  0.83581281  0.66242556  0.49319599    -0.23200
C1828       C  0.86434702  0.66436657  0.47211324     0.19600
F1829       F  0.86804979  0.69050991  0.45037959    -0.13200
F1830       F  0.91649531  0.64194826  0.45264355    -0.15600
F1831       F  0.81427096  0.63519218  0.05362962    -0.15600
F1832       F  0.86251036  0.58616439  0.05182527    -0.13200
C1833       C  0.61857662  0.86972818  0.47014774     0.24800
C1834       C  0.61278170  0.88916425  0.49917683    -0.23300
C1835       C  0.64359892  0.89367682  0.01206428     0.19700
C1836       C  0.66793445  0.86827542  0.01402551     0.24700
C1837       C  0.66198608  0.83852352  0.49954664    -0.23200
C1838       C  0.64261007  0.84406780  0.47048978     0.19600
F1839       F  0.64716450  0.82473220  0.44250764    -0.13200
F1840       F  0.60142820  0.87615093  0.44132614    -0.15600
F1841       F  0.69693538  0.87475726  0.03099162    -0.15600
F1842       F  0.65096387  0.92437122  0.02526033    -0.13200
C1843       C  0.60870528  0.63917654  0.47618961     0.24800
C1844       C  0.61085241  0.61266332  0.49956495    -0.23300
C1845       C  0.63589129  0.61220640  0.03063018     0.19700
C1846       C  0.66020832  0.63771390  0.03230555     0.24700
C1847       C  0.66076561  0.66331676  0.49774331    -0.23200
C1848       C  0.63377173  0.66385783  0.47480044     0.19600
F1849       F  0.63168861  0.68838175  0.45105847    -0.13200
F1850       F  0.58259182  0.64084663  0.45421755    -0.15600
F1851       F  0.68148564  0.63900392  0.05909207    -0.15600
F1852       F  0.63363477  0.58950084  0.05611682    -0.13200
C1853       C  0.83217657  0.97728912  0.36654896     0.24800
C1854       C  0.83757562  0.50275472  0.33695170    -0.23300
C1855       C  0.86784705  0.52065927  0.33284406     0.19700
C1856       C  0.89372544  0.51761568  0.35655265     0.24700
C1857       C  0.88652545  0.99662977  0.38741617    -0.23200
C1858       C  0.85678273  0.97792684  0.39186563     0.19600
F1859       F  0.85208645  0.95923132  0.42014846    -0.13200
F1860       F  0.80432115  0.95799485  0.37105498    -0.15600
F1861       F  0.92325324  0.53363568  0.35075389    -0.15600
F1862       F  0.87234994  0.54114487  0.30580744    -0.13200
C1863       C  0.63817695  0.52559554  0.34090393     0.24800
C1864       C  0.66394333  0.50139384  0.34008984    -0.23300
C1865       C  0.66310255  0.97763188  0.36318838     0.19700
C1866       C  0.63834379  0.97840428  0.38825105     0.24700
C1867       C  0.61089482  0.00064024  0.38563570    -0.23200
C1868       C  0.61410401  0.52510871  0.36651176     0.19600
F1869       F  0.58988377  0.54928048  0.36723034    -0.13200
F1870       F  0.63641269  0.54975124  0.31679730    -0.15600
F1871       F  0.64069500  0.95677824  0.41466257    -0.15600
F1872       F  0.68843297  0.95472897  0.36539234    -0.13200
C1873       C  0.61367176  0.52767026  0.13543784     0.24800
C1874       C  0.61031210  0.49956481  0.11413620    -0.23300
C1875       C  0.63528226  0.97330810  0.10986706     0.19700
C1876       C  0.66012538  0.97197598  0.13476533     0.24700
C1877       C  0.66060178  0.50068581  0.16395468    -0.23200
C1878       C  0.63887513  0.52834224  0.16005739     0.19600
F1879       F  0.64255396  0.55616902  0.17971710    -0.13200
F1880       F  0.59317100  0.55481168  0.13164493    -0.15600
F1881       F  0.68306343  0.94658665  0.13404300    -0.15600
F1882       F  0.63434558  0.94892858  0.08582990    -0.13200
C1883       C  0.87428675  0.96321303  0.12186257     0.24800
C1884       C  0.88741845  0.50002482  0.11297190    -0.23300
C1885       C  0.89025589  0.51972028  0.14241128     0.19700
C1886       C  0.86441914  0.52004480  0.16637069     0.24700
C1887       C  0.83594565  0.49939018  0.16223971    -0.23200
C1888       C  0.84918311  0.96202609  0.14672088     0.19600
F1889       F  0.83688074  0.93176815  0.15679605    -0.13200
F1890       F  0.88562347  0.93407082  0.10781958    -0.15600
F1891       F  0.86716958  0.54060935  0.19371591    -0.15600
F1892       F  0.91785957  0.53895534  0.14793518    -0.13200
C1893       C  0.53373117  0.65336367  0.35419184     0.24800
C1894       C  0.00739764  0.66137436  0.33579542    -0.23300
C1895       C  0.98160148  0.63716903  0.33577097     0.19700
C1896       C  0.98087908  0.61191508  0.36034811     0.24700
C1897       C  0.00576842  0.61047456  0.38550804    -0.23200
C1898       C  0.53334527  0.62737467  0.37803398     0.19600
F1899       F  0.56227116  0.61887201  0.39409266    -0.13200
F1900       F  0.56285363  0.67018373  0.34809016    -0.15600
F1901       F  0.95536328  0.58933731  0.36006461    -0.15600
F1902       F  0.95691856  0.63826293  0.31207533    -0.13200
C1903       C  0.52380481  0.83728138  0.36236327     0.24800
C1904       C  0.00281609  0.83735006  0.33603665    -0.23300
C1905       C  0.97891241  0.86349903  0.33442810     0.19700
C1906       C  0.97836670  0.88874986  0.35914883     0.24700
C1907       C  0.00142019  0.88795554  0.38601849    -0.23200
C1908       C  0.52279599  0.86205370  0.38733623     0.19600
F1909       F  0.54537633  0.86073268  0.41288765    -0.13200
F1910       F  0.54803255  0.81313693  0.36365502    -0.15600
F1911       F  0.95490465  0.91358766  0.35725309    -0.15600
F1912       F  0.95606862  0.86445276  0.30895337    -0.13200
C1913       C  0.98032804  0.88816603  0.13607562     0.24800
C1914       C  0.00376068  0.88656148  0.10950850    -0.23300
C1915       C  0.52421462  0.85977752  0.10802793     0.19700
C1916       C  0.52457733  0.83513995  0.13324957     0.24700
C1917       C  0.00387822  0.83731624  0.16060918    -0.23200
C1918       C  0.98021706  0.86362285  0.16125479     0.19600
F1919       F  0.95658865  0.86514205  0.18601131    -0.13200
F1920       F  0.95688539  0.91309101  0.13710016    -0.15600
F1921       F  0.54671249  0.80912527  0.13081612    -0.15600
F1922       F  0.54672239  0.85771254  0.08224754    -0.13200
C1923       C  0.97482800  0.61541777  0.13497331     0.24800
C1924       C  0.00106246  0.61332643  0.11135865    -0.23300
C1925       C  0.52638495  0.63769168  0.11165366     0.19700
C1926       C  0.52660518  0.66212200  0.13718090     0.24700
C1927       C  0.00158085  0.66363164  0.16119662    -0.23200
C1928       C  0.97511142  0.64033153  0.15986577     0.19600
F1929       F  0.94946814  0.64198611  0.18251580    -0.13200
F1930       F  0.94835238  0.59404479  0.13309126    -0.15600
F1931       F  0.55243081  0.68446547  0.13890074    -0.15600
F1932       F  0.55202938  0.63669502  0.08895809    -0.13200
N1933       N  0.50555017  0.75059705  0.69619686    -0.35400
N1934       N  0.50112390  0.80181824  0.74782316    -0.56000
N1935       N  0.50176729  0.74969930  0.79953923    -0.35400
N1936       N  0.50253537  0.69840380  0.74781350    -0.56000
C1937       C  0.49863385  0.77807233  0.67735167     0.28200
C1938       C  0.49770598  0.72331195  0.67732615     0.28200
C1939       C  0.49163837  0.77684400  0.81762983     0.28200
C1940       C  0.49407880  0.72197521  0.81780010     0.28200
C1941       C  0.50905930  0.82141029  0.72113605     0.36800
C1942       C  0.50544129  0.82109555  0.77562600     0.36800
C1943       C  0.51003782  0.67961374  0.72029761     0.36800
C1944       C  0.50975300  0.67917037  0.77500721     0.36800
C1945       C  0.48631987  0.76820704  0.64610622    -0.20700
C1946       C  0.48558049  0.73357526  0.64613422    -0.20700
C1947       C  0.47734239  0.76628104  0.84775766    -0.20700
C1948       C  0.47880987  0.73161984  0.84783243    -0.20700
C1949       C  0.51844474  0.85326088  0.73200136    -0.21700
C1950       C  0.51615976  0.85306900  0.76658032    -0.21700
C1951       C  0.52202328  0.64830225  0.72998745    -0.21700
C1952       C  0.52211407  0.64811398  0.76466876    -0.21700
C1953       C  0.50501104  0.81167457  0.68707399    -0.17100
C1954       C  0.50386849  0.68954389  0.68662439    -0.17100
C1955       C  0.50249753  0.68844885  0.80879173    -0.17100
C1956       C  0.49749330  0.81085454  0.80878881    -0.17100
H1957       H  0.47887039  0.78427336  0.62536912     0.15800
H1958       H  0.47755934  0.71777286  0.62532262     0.15800
H1959       H  0.46726409  0.78195088  0.86778652     0.15800
H1960       H  0.46993941  0.71540451  0.86787256     0.15800
H1961       H  0.52566165  0.87455248  0.71660843     0.14100
H1962       H  0.52141704  0.87418591  0.78310656     0.14100
H1963       H  0.52973176  0.62769524  0.71375251     0.14100
H1964       H  0.52989531  0.62728207  0.78041345     0.14100
H1965       H  0.51864694  0.75040578  0.71893192     0.27400
H1966       H  0.51676973  0.75024519  0.77799970     0.27400
O1967       O  0.99952125  0.59641894  0.55400570    -0.85300
O1968       O  0.00409116  0.90406709  0.55295010    -0.85400
O1969       O  0.94292536  0.50106619  0.59603775    -0.87100
O1970       O  0.55192456  0.50077594  0.59693147    -0.85900
O1971       O  0.59612404  0.99990569  0.55259549    -0.85500
O1972       O  0.90365712  0.99964484  0.55405045    -0.86800
O1973       O  0.00122699  0.94502268  0.59405741    -0.85300
O1974       O  0.99784747  0.55574896  0.59516994    -0.84900
Zr1975     Zr  0.99941444  0.00013056  0.56701951     2.84300
O1976       O  0.53442822  0.96590669  0.53220333    -1.06900
O1977       O  0.96407583  0.53456398  0.53347009    -1.07600
C1978       C  0.99925593  0.58667068  0.58511590     1.07800
C1979       C  0.00334733  0.91407444  0.58399055     1.07800
C1980       C  0.91220766  0.49902357  0.58568580     1.10800
C1981       C  0.58309823  0.49903359  0.58769460     1.08500
H1982       H  0.95208132  0.95105511  0.54742974     0.34100
O1983       O  0.96579357  0.96529245  0.53325050    -1.27800
H1984       H  0.54622481  0.54859451  0.54790319     0.33800
O1985       O  0.53244910  0.53439560  0.53369465    -1.29500
O1986       O  0.99817244  0.90521927  0.94215443    -0.85300
O1987       O  0.00295921  0.59592412  0.94558357    -0.86800
O1988       O  0.90336357  0.94462469  0.00010541    -0.85400
O1989       O  0.59474468  0.94465637  0.99808371    -0.85400
O1990       O  0.59688623  0.55347409  0.00366357    -0.85100
O1991       O  0.90433778  0.55378869  0.00230917    -0.84900
O1992       O  0.94258736  0.99951600  0.90409591    -0.85300
O1993       O  0.55313772  0.00227956  0.90232684    -0.84800
O1994       O  0.90205715  0.99751822  0.94538169    -0.85800
O1995       O  0.59393786  0.00096630  0.94343206    -0.85000
O1996       O  0.94448450  0.90397354  0.99784358    -0.85400
O1997       O  0.94515700  0.59484923  0.00079782    -0.85100
O1998       O  0.55650815  0.59473891  0.99892258    -0.84700
O1999       O  0.55416386  0.90363427  0.99715149    -0.85200
O2000       O  0.99580471  0.94645013  0.90155160    -0.85500
O2001       O  0.00271279  0.55488365  0.90467669    -0.86800
Zr2002     Zr  0.99970283  0.93164772  0.99759621     2.83100
Zr2003     Zr  0.00061791  0.56782823  0.00035181     2.83500
Zr2004     Zr  0.93123104  0.99909602  0.99962955     2.84100
Zr2005     Zr  0.56665232  0.99928543  0.99838744     2.83400
Zr2006     Zr  0.99816234  0.00085361  0.93025166     2.84200
O2007       O  0.53574668  0.53328667  0.96619342    -1.07400
O2008       O  0.96515613  0.96600010  0.96448600    -1.06900
C2009       C  0.99636268  0.91540645  0.91127253     1.07800
C2010       C  0.00337081  0.58603473  0.91444756     1.10400
C2011       C  0.91335494  0.91368478  0.99918711     1.08000
C2012       C  0.58518874  0.91354913  0.99751693     1.08300
C2013       C  0.58731146  0.58450047  0.00168560     1.07900
C2014       C  0.91417513  0.58482750  0.00197079     1.07500
C2015       C  0.91164959  0.99820740  0.91419280     1.07900
C2016       C  0.58413926  0.00225219  0.91238016     1.07400
H2017       H  0.95246678  0.54781715  0.95207756     0.34100
O2018       O  0.96645831  0.53379325  0.96629651    -1.28500
H2019       H  0.54689008  0.95155464  0.94929027     0.34100
O2020       O  0.53284415  0.96540165  0.96366800    -1.29800
N2021       N  0.75038448  0.49934860  0.80199724    -0.35400
N2022       N  0.80071552  0.49663730  0.74970427    -0.56000
N2023       N  0.74758316  0.49110652  0.69873745    -0.35400
N2024       N  0.69717851  0.49775555  0.75142641    -0.56000
C2025       C  0.77827141  0.50799101  0.81959782     0.28200
C2026       C  0.72346986  0.50871029  0.82065758     0.28200
C2027       C  0.77475821  0.49763285  0.67918950     0.28200
C2028       C  0.71985628  0.49777511  0.68004818     0.28200
C2029       C  0.82014545  0.49010679  0.77697023     0.36800
C2030       C  0.81870952  0.48691742  0.72239069     0.36800
C2031       C  0.67853054  0.49353133  0.77968259     0.36800
C2032       C  0.67695311  0.49001614  0.72504634     0.36800
C2033       C  0.76894228  0.52353942  0.84961387    -0.20700
C2034       C  0.73428545  0.52379773  0.85038151    -0.20700
C2035       C  0.76417186  0.50827748  0.64759178    -0.20700
C2036       C  0.72952262  0.50822496  0.64808798    -0.20700
C2037       C  0.85046205  0.47592354  0.76689894    -0.21700
C2038       C  0.84965075  0.47415923  0.73227014    -0.21700
C2039       C  0.64627615  0.48314351  0.77119324    -0.21700
C2040       C  0.64524782  0.48104816  0.73655869    -0.21700
C2041       C  0.81158074  0.49909079  0.81050973    -0.17100
C2042       C  0.68961976  0.50117522  0.81280514    -0.17100
C2043       C  0.68611506  0.49333814  0.69068186    -0.17100
C2044       C  0.80871735  0.49220879  0.68860077    -0.17100
H2045       H  0.78536057  0.53289048  0.86932734     0.15800
H2046       H  0.71881515  0.53338883  0.87078862     0.15800
H2047       H  0.77974447  0.51513654  0.62626002     0.15800
H2048       H  0.71332043  0.51513048  0.62725283     0.15800
H2049       H  0.87116443  0.46801459  0.78277153     0.14100
H2050       H  0.86959545  0.46472714  0.71615286     0.14100
H2051       H  0.62551904  0.47799175  0.78813059     0.14100
H2052       H  0.62359734  0.47394156  0.72155722     0.14100
H2053       H  0.74966254  0.48375800  0.78085351     0.27400
H2054       H  0.74796269  0.47950294  0.72223439     0.27400
N2055       N  0.74984647  0.80027786  0.00340510    -0.35400
N2056       N  0.80157546  0.74894065  0.00467534    -0.56000
N2057       N  0.75013127  0.69734594  0.00746634    -0.35400
N2058       N  0.69827609  0.74877849  0.00350120    -0.56000
C2059       C  0.77746479  0.81788138  0.99413434     0.28200
C2060       C  0.72258301  0.81749421  0.99236375     0.28200
C2061       C  0.77751664  0.67859416  0.99962927     0.28200
C2062       C  0.72265610  0.67849454  0.00048515     0.28200
C2063       C  0.82034746  0.77642214  0.01182025     0.36800
C2064       C  0.82073336  0.72184703  0.01221974     0.36800
C2065       C  0.67971380  0.77647651  0.01060772     0.36800
C2066       C  0.67974508  0.72194964  0.01316974     0.36800
C2067       C  0.76775799  0.84648454  0.97662511    -0.19600
C2068       C  0.73308563  0.84606326  0.97518271    -0.20700
C2069       C  0.76730543  0.64736757  0.98756954    -0.20700
C2070       C  0.73261794  0.64727004  0.98820856    -0.20700
C2071       C  0.85144019  0.76673548  0.02446465    -0.21700
C2072       C  0.85178769  0.73208737  0.02441513    -0.21700
C2073       C  0.64949601  0.76716117  0.02550145    -0.21700
C2074       C  0.64931737  0.73251543  0.02663450    -0.21700
C2075       C  0.81090506  0.80968974  0.00329153    -0.17100
C2076       C  0.68878480  0.80950588  0.00069012    -0.17100
C2077       C  0.68907583  0.68812397  0.00732446    -0.17100
C2078       C  0.81130562  0.68815378  0.00566333    -0.17100
H2079       H  0.78394294  0.86580952  0.96628166     0.15800
H2080       H  0.71740643  0.86511496  0.96359761     0.15800
H2081       H  0.78318301  0.62658930  0.97969546     0.15800
H2082       H  0.71659747  0.62642972  0.98092475     0.15800
H2083       H  0.87206046  0.78288898  0.03202226     0.14100
H2084       H  0.87261877  0.71625053  0.03207462     0.14100
H2085       H  0.62938719  0.78353462  0.03403504     0.14100
H2086       H  0.62912904  0.71687518  0.03613731     0.14100
H2087       H  0.74953752  0.78006440  0.02011524     0.27400
H2088       H  0.75015946  0.72011115  0.02056094     0.27400
C2089       C  0.86376969  0.88684295  0.52579640     0.24800
C2090       C  0.88698966  0.88733738  0.00001661    -0.23300
C2091       C  0.89069929  0.85765122  0.98089167     0.19700
C2092       C  0.86583937  0.83273463  0.98161431     0.24700
C2093       C  0.83715129  0.83655956  0.00215151    -0.23200
C2094       C  0.83881497  0.86197009  0.52617012     0.19600
F2095       F  0.81642775  0.86108867  0.55209447    -0.13200
F2096       F  0.86478278  0.90988453  0.55113104    -0.15600
F2097       F  0.86961049  0.80491619  0.96192205    -0.15600
F2098       F  0.91796160  0.85317575  0.96064432    -0.13200
C2099       C  0.88787605  0.63711347  0.97888846     0.24800
C2100       C  0.88784354  0.61109989  0.00288832    -0.23300
C2101       C  0.85695712  0.60922267  0.51543185     0.19700
C2102       C  0.83243694  0.63457368  0.51482632     0.24700
C2103       C  0.83791906  0.66170777  0.00481815    -0.23200
C2104       C  0.86301281  0.66214899  0.97974201     0.19600
F2105       F  0.86311840  0.68659943  0.95583680    -0.13200
F2106       F  0.91150044  0.63771865  0.95408042    -0.15600
F2107       F  0.80551645  0.63221112  0.53585379    -0.15600
F2108       F  0.85281424  0.58279321  0.53670701    -0.13200
C2109       C  0.60607895  0.85533856  0.98294559     0.24800
C2110       C  0.61191995  0.88725630  0.99741970    -0.23300
C2111       C  0.63159010  0.88310971  0.52850666     0.19700
C2112       C  0.65650959  0.85822173  0.52853156     0.24700
C2113       C  0.66234005  0.83650490  0.99906491    -0.23200
C2114       C  0.63133124  0.83071792  0.98273758     0.19600
F2115       F  0.62532503  0.80111497  0.96654195    -0.13200
F2116       F  0.57608792  0.84799713  0.96836010    -0.15600
F2117       F  0.67490701  0.85284978  0.55689502    -0.15600
F2118       F  0.62505098  0.90052833  0.55729056    -0.13200
C2119       C  0.61652739  0.63415009  0.97696729     0.24800
C2120       C  0.61368998  0.61050031  0.00305220    -0.23300
C2121       C  0.63796407  0.61197710  0.52241437     0.19700
C2122       C  0.66239509  0.63743615  0.52186797     0.24700
C2123       C  0.66245338  0.66186767  0.00651912    -0.23200
C2124       C  0.64041937  0.65992554  0.97886290     0.19600
F2125       F  0.64265190  0.68254737  0.95331737    -0.13200
F2126       F  0.59711721  0.63132891  0.94898450    -0.15600
F2127       F  0.68742103  0.63719672  0.54521609    -0.15600
F2128       F  0.64018985  0.58728431  0.54596497    -0.13200
C2129       C  0.83040203  0.98112512  0.86630140     0.24800
C2130       C  0.83831145  0.49905213  0.83713724    -0.23300
C2131       C  0.86800503  0.51785492  0.83291061     0.19700
C2132       C  0.89363029  0.51654993  0.85711716     0.24700
C2133       C  0.88530020  0.99841798  0.88771410    -0.23200
C2134       C  0.85506245  0.98028045  0.89159080     0.19600
F2135       F  0.84977747  0.96092383  0.91930701    -0.13200
F2136       F  0.80182003  0.96277458  0.87025059    -0.15600
F2137       F  0.92243833  0.53379331  0.85132530    -0.15600
F2138       F  0.87207528  0.53778467  0.80539382    -0.13200
C2139       C  0.63876594  0.52579124  0.84108589     0.24800
C2140       C  0.66462320  0.50163750  0.84070553    -0.23300
C2141       C  0.66463377  0.98349397  0.86474574     0.19700
C2142       C  0.63966596  0.98313602  0.88963007     0.24700
C2143       C  0.61077548  0.00344080  0.88639234    -0.23200
C2144       C  0.61438485  0.52533162  0.86646251     0.19600
F2145       F  0.58983141  0.54918363  0.86663492    -0.13200
F2146       F  0.63719976  0.54980508  0.81682068    -0.15600
F2147       F  0.64329054  0.96222508  0.91647291    -0.15600
F2148       F  0.69164177  0.96270587  0.86788169    -0.13200
C2149       C  0.61042281  0.52222838  0.63965540     0.24800
C2150       C  0.60881949  0.49737595  0.61441396    -0.23300
C2151       C  0.64109823  0.98114969  0.60764857     0.19700
C2152       C  0.66510289  0.98114132  0.63342593     0.24700
C2153       C  0.65900533  0.49425242  0.66466644    -0.23200
C2154       C  0.63567404  0.52095606  0.66429207     0.19600
F2155       F  0.63809131  0.54633513  0.68721394    -0.13200
F2156       F  0.58831773  0.54835815  0.63967606    -0.15600
F2157       F  0.69119477  0.95903839  0.63183747    -0.15600
F2158       F  0.64525300  0.96008299  0.58093690    -0.13200
C2159       C  0.85526631  0.98546008  0.60546936     0.24800
C2160       C  0.88577224  0.49727216  0.61196016    -0.23300
C2161       C  0.88614396  0.51947170  0.63968832     0.19700
C2162       C  0.86078853  0.51818360  0.66414766     0.24700
C2163       C  0.83536943  0.49364906  0.66215230    -0.23200
C2164       C  0.83066034  0.98498656  0.63070324     0.19600
F2165       F  0.80134508  0.96843633  0.62466431    -0.13200
F2166       F  0.84820603  0.97076741  0.57533093    -0.15600
F2167       F  0.86087328  0.54106298  0.68973940    -0.15600
F2168       F  0.91083217  0.54271175  0.64293100    -0.13200
C2169       C  0.52246320  0.66564382  0.86475474     0.24800
C2170       C  0.00583030  0.66283797  0.83712120    -0.23300
C2171       C  0.98669327  0.63329909  0.83277994     0.19700
C2172       C  0.98659888  0.60818432  0.85750579     0.24700
C2173       C  0.00441313  0.61246490  0.88787882    -0.23200
C2174       C  0.52215400  0.64098034  0.88997077     0.19600
F2175       F  0.54107506  0.64578063  0.91801958    -0.13200
F2176       F  0.54220977  0.69326109  0.86888867    -0.15600
F2177       F  0.96788720  0.58018170  0.85223919    -0.15600
F2178       F  0.96741427  0.62902195  0.80479217    -0.13200
C2179       C  0.51984803  0.83601021  0.86209944     0.24800
C2180       C  0.99460707  0.83791589  0.83584920    -0.23300
C2181       C  0.97063711  0.86407153  0.83488496     0.19700
C2182       C  0.97138100  0.88981628  0.85914440     0.24700
C2183       C  0.99552764  0.88912057  0.88506799    -0.23200
C2184       C  0.51971465  0.86093230  0.88701339     0.19600
F2185       F  0.54307193  0.85965439  0.91189819    -0.13200
F2186       F  0.54362849  0.81141222  0.86311308    -0.15600
F2187       F  0.94823984  0.91500454  0.85772343    -0.15600
F2188       F  0.94684938  0.86478091  0.81027684    -0.13200
C2189       C  0.97887188  0.88816712  0.63534191     0.24800
C2190       C  0.00381964  0.88796371  0.61022892    -0.23300
C2191       C  0.53055354  0.86296482  0.61044841     0.19700
C2192       C  0.53047825  0.83806576  0.63542918     0.24700
C2193       C  0.00313038  0.83791230  0.66042128    -0.23200
C2194       C  0.97840326  0.86325068  0.66011573     0.19600
F2195       F  0.95342362  0.86345438  0.68353670    -0.13200
F2196       F  0.95420195  0.91189607  0.63510569    -0.15600
F2197       F  0.55471168  0.81388487  0.63509447    -0.15600
F2198       F  0.55553133  0.86320776  0.58699032    -0.13200
C2199       C  0.98091007  0.61069827  0.64046451     0.24800
C2200       C  0.00108830  0.61297743  0.61143860    -0.23300
C2201       C  0.52465103  0.63940931  0.60749795     0.19700
C2202       C  0.52593769  0.66406534  0.63278896     0.24700
C2203       C  0.00415099  0.66310343  0.66191550    -0.23200
C2204       C  0.98198858  0.63576743  0.66520116     0.19600
F2205       F  0.96109062  0.63355774  0.69226660    -0.13200
F2206       F  0.95963391  0.58444073  0.64461324    -0.15600
F2207       F  0.54963517  0.68864322  0.63101113    -0.15600
F2208       F  0.54752938  0.64018536  0.58199070    -0.13200
loop_ 
_geom_bond_atom_site_label_1 
_geom_bond_atom_site_label_2 
_geom_bond_distance 
_geom_bond_site_symmetry_2 
_ccdc_geom_bond_type 
N1            C6   1.353   1_455  A
N1            C5   1.352       .  A
N1           H33   1.041       .  S
N2            C9   1.350       .  A
N2           C10   1.351       .  A
N3            C8   1.352   1_455  A
N3            C7   1.353   1_455  A
N3           H34   1.039       .  S
N4           C11   1.351       .  A
N4           C12   1.350       .  A
C5           C13   1.387   1_455  A
C5           C21   1.414       .  A
C6           C22   1.414   1_655  A
C6           C14   1.387       .  A
C7           C15   1.387       .  A
C7           C24   1.415   1_655  A
C8           C23   1.415   1_655  A
C8           C16   1.387       .  A
C9           C21   1.413       .  A
C9           C17   1.387       .  A
C10          C24   1.413       .  A
C10          C18   1.386       .  A
C11          C19   1.386       .  A
C11          C22   1.411       .  A
C12          C20   1.386       .  A
C12          C23   1.412       .  A
C13          C14   1.377       .  A
C13          H25   1.082       .  S
C14          H26   1.082       .  S
C15          C16   1.377       .  A
C15          H27   1.082       .  S
C16          H28   1.082       .  S
C17          C18   1.374       .  A
C17          H29   1.082       .  S
C18          H30   1.082       .  S
C19          C20   1.374       .  A
C19          H31   1.082       .  S
C20          H32   1.082       .  S
C21        C1365   1.486       .  S
C22        C1375   1.490       .  S
C23        C1342   1.485       .  S
C24        C1352   1.487       .  S
O35          C46   1.291       .  A
O35        Zr347   2.435   1_554  S
O36          C47   1.291       .  A
O36        Zr346   2.431       .  S
O37          C48   1.293       .  A
O37        Zr595   2.446   1_545  S
O38          C49   1.293       .  A
O38       Zr1699   2.442   1_445  S
O39         C601   1.289       .  A
O39        Zr349   2.428       .  S
O40         C600   1.295       .  A
O40        Zr348   2.450   1_554  S
O41          C47   1.294       .  A
O41         Zr43   2.445       .  S
O42          C46   1.292       .  A
O42        Zr595   2.436   1_545  S
Zr43        O589   2.434       .  S
Zr43       O1694   2.439       .  S
Zr43        O594   2.443       .  S
Zr43         O51   2.345       .  S
Zr43       O1148   2.343       .  S
Zr43        O597   2.338       .  S
Zr43       O1709   2.340       .  S
O44       Zr1147   2.342   1_455  S
O44       Zr1450   2.340       .  S
O44        Zr349   2.332       .  S
O45        Zr595   2.335   1_545  S
O45        Zr347   2.345   1_554  S
O45        Zr900   2.338   1_544  S
C46         C268   1.466       .  S
C47         C258   1.472       .  S
C48         C228   1.485       .  S
C48         O592   1.292   1_545  A
C49         C218   1.479       .  S
C49         O591   1.292       .  A
H50          O51   0.966       .  S
O51        Zr346   2.349       .  S
O51        Zr348   2.339   1_554  S
H52          O53   0.965       .  S
O53       Zr1699   2.342   1_445  S
O53       Zr1451   2.334   1_454  S
O53        Zr901   2.332   1_554  S
O54          C77   1.294       .  A
O54         Zr70   2.452       .  S
O55          C78   1.292       .  A
O55         Zr71   2.441       .  S
O56          C79   1.294       .  A
O56         Zr72   2.443       .  S
O57          C80   1.292       .  A
O57         Zr73   2.439       .  S
O58          C81   1.294       .  A
O58        Zr625   2.444       .  S
O59          C82   1.292       .  A
O59        Zr624   2.438   1_545  S
O60          C83   1.293       .  A
O60         Zr74   2.443       .  S
O61          C84   1.295       .  A
O61       Zr1178   2.451       .  S
O62          C83   1.293       .  A
O62         Zr72   2.438       .  S
O63          C84   1.289       .  A
O63         Zr73   2.421       .  S
O64          C79   1.294       .  A
O64         Zr70   2.445       .  S
O65          C82   1.293       .  A
O65         Zr71   2.438       .  S
O66          C81   1.291       .  A
O66       Zr1175   2.434   1_455  S
O67          C80   1.295       .  A
O67       Zr1174   2.452       .  S
O68          C77   1.290       .  A
O68         Zr74   2.429       .  S
O69          C78   1.292       .  A
O69        Zr626   2.436       .  S
Zr70        O312   2.446       .  S
Zr70       O1171   2.450       .  S
Zr70         O76   2.339       .  S
Zr70       O1424   2.344       .  S
Zr70        O327   2.350       .  S
Zr70       O1192   2.338       .  S
Zr71        O311   2.432       .  S
Zr71       O1170   2.440       .  S
Zr71         O86   2.346       .  S
Zr71        O321   2.345       .  S
Zr71       O1433   2.338       .  S
Zr71       O1179   2.336       .  S
Zr72        O316   2.462       .  S
Zr72        O611   2.442       .  S
Zr72         O76   2.342       .  S
Zr72        O873   2.341       .  S
Zr72        O327   2.339       .  S
Zr72        O638   2.350       .  S
Zr73        O315   2.432       .  S
Zr73        O610   2.451       .  S
Zr73         O88   2.345       .  S
Zr73        O320   2.337       .  S
Zr73        O881   2.332       .  S
Zr73        O627   2.349       .  S
Zr74       O1165   2.448       .  S
Zr74        O621   2.436       .  S
Zr74         O76   2.340       .  S
Zr74       O1731   2.338       .  S
Zr74       O1192   2.344       .  S
Zr74        O638   2.340       .  S
O75       Zr1175   2.335   1_455  S
O75        Zr625   2.339       .  S
O75       Zr1730   2.341   1_455  S
C77         C251   1.472       .  S
C78         C241   1.479       .  S
C79         C158   1.486       .  S
C80         C178   1.489       .  S
C81         C188   1.481       .  S
C82         C168   1.477       .  S
C83         C201   1.478       .  S
C84         C211   1.470       .  S
H85          O86   0.968       .  S
O86        Zr624   2.350   1_545  S
O86        Zr626   2.341       .  S
H87          O88   0.966       .  S
O88       Zr1174   2.336       .  S
O88       Zr1178   2.343       .  S
N89          C94   1.351   1_565  A
N89          C93   1.353   1_565  A
N89         H121   1.042       .  S
N90          C97   1.349       .  A
N90          C98   1.349       .  A
N91          C96   1.352   1_565  A
N91          C95   1.351   1_565  A
N91         H122   1.042       .  S
N92          C99   1.349   1_545  A
N92         C100   1.350   1_545  A
C93         C101   1.387       .  A
C93         C109   1.415   1_545  A
C94         C110   1.413   1_545  A
C94         C102   1.387       .  A
C95         C103   1.387       .  A
C95         C112   1.412   1_545  A
C96         C111   1.412       .  A
C96         C104   1.386       .  A
C97         C109   1.412       .  A
C97         C105   1.387       .  A
C98         C112   1.411       .  A
C98         C106   1.386       .  A
C99         C107   1.386       .  A
C99         C110   1.410       .  A
C100        C108   1.386       .  A
C100        C111   1.412   1_565  A
C101        C102   1.380       .  A
C101        H113   1.082       .  S
C102        H114   1.082       .  S
C103        C104   1.377       .  A
C103        H115   1.082       .  S
C104        H116   1.082       .  S
C105        C106   1.376       .  A
C105        H117   1.082       .  S
C106        H118   1.082       .  S
C107        C108   1.376       .  A
C107        H119   1.082       .  S
C108        H120   1.082       .  S
C109        C198   1.495       .  S
C110        C208   1.486   1_565  S
C111        C221   1.493       .  S
C112        C231   1.490   1_565  S
N123        C128   1.352       .  A
N123        C127   1.352       .  A
N123        H155   1.042       .  S
N124        C131   1.350       .  A
N124        C132   1.349       .  A
N125        C130   1.352       .  A
N125        C129   1.352       .  A
N125        H156   1.042       .  S
N126        C133   1.352       .  A
N126        C134   1.351       .  A
C127        C135   1.388       .  A
C127        C143   1.416       .  A
C128        C144   1.414       .  A
C128        C136   1.386       .  A
C129        C137   1.387       .  A
C129        C146   1.414       .  A
C130        C145   1.416       .  A
C130        C138   1.388       .  A
C131        C143   1.412       .  A
C131        C139   1.386       .  A
C132        C146   1.410       .  A
C132        C140   1.386       .  A
C133        C141   1.386       .  A
C133        C144   1.415       .  A
C134        C142   1.385       .  A
C134        C145   1.414       .  A
C135        C136   1.379       .  A
C135        H147   1.082       .  S
C136        H148   1.082       .  S
C137        C138   1.378       .  A
C137        H149   1.082       .  S
C138        H150   1.082       .  S
C139        C140   1.375       .  A
C139        H151   1.082       .  S
C140        H152   1.082       .  S
C141        C142   1.376       .  A
C141        H153   1.082       .  S
C142        H154   1.082       .  S
C143        C161   1.496       .  S
C144        C181   1.496       .  S
C145        C191   1.496       .  S
C146        C171   1.491       .  S
C157        C162   1.396       .  A
C157        C434   1.406   1_554  A
C157        F164   1.354       .  S
C158        C159   1.410       .  A
C158        C433   1.407       .  A
C159        C160   1.403       .  A
C159        F166   1.358       .  S
C160        C161   1.410       .  A
C160        F165   1.358       .  S
C161        C438   1.406       .  A
C162        C437   1.406   1_554  A
C162        F163   1.358       .  S
C167        C168   1.406       .  A
C167        C172   1.398       .  A
C167        F174   1.358       .  S
C168        C445   1.407       .  A
C169        C170   1.398       .  A
C169        C444   1.406       .  A
C169        F176   1.358       .  S
C170        C447   1.407       .  A
C170        F175   1.358       .  S
C171        C172   1.408       .  A
C171        C446   1.406       .  A
C172        F173   1.358       .  S
C177        C178   1.408       .  A
C177        C182   1.399       .  A
C177        F184   1.356       .  S
C178        C455   1.411       .  A
C179        C180   1.400       .  A
C179        C454   1.409       .  A
C179        F186   1.357       .  S
C180        C457   1.408   1_554  A
C180        F185   1.358       .  S
C181        C182   1.407       .  A
C181        C456   1.407       .  A
C182        F183   1.358       .  S
C187        C188   1.407       .  A
C187        C192   1.398       .  A
C187        F194   1.356       .  S
C188        C465   1.407       .  A
C189        C190   1.402       .  A
C189        C464   1.408       .  A
C189        F196   1.358       .  S
C190        C467   1.409       .  A
C190        F195   1.358       .  S
C191        C192   1.408       .  A
C191        C466   1.408       .  A
C192        F193   1.358       .  S
C197        C202   1.397       .  A
C197        C750   1.406       .  A
C197        F204   1.358       .  S
C198        C199   1.407   1_565  A
C198        C749   1.409       .  A
C199        C200   1.395       .  A
C199        F206   1.358       .  S
C200        C753   1.406   1_545  A
C200        F205   1.355       .  S
C201        C202   1.406       .  A
C201        C752   1.407       .  A
C202        F203   1.358       .  S
C207        C208   1.406       .  A
C207        C212   1.399       .  A
C207        F214   1.358       .  S
C208        C761   1.405   1_545  A
C209        C210   1.403       .  A
C209        C760   1.409       .  A
C209        F216   1.358       .  S
C210        C211   1.407       .  A
C210        F215   1.359       .  S
C211        C764   1.402       .  A
C212        C763   1.406       .  A
C212        F213   1.358       .  S
C217        C218   1.407       .  A
C217        C222   1.400       .  A
C217        F224   1.358       .  S
C218        C771   1.406   1_545  A
C219        C220   1.398       .  A
C219        C770   1.403       .  A
C219        F226   1.357       .  S
C220        C773   1.405       .  A
C220        F225   1.358       .  S
C221        C222   1.408       .  A
C221        C772   1.407   1_545  A
C222        F223   1.358       .  S
C227        C232   1.399       .  A
C227        C780   1.406       .  A
C227        F234   1.354       .  S
C228        C229   1.408       .  A
C228        C779   1.408   1_545  A
C229        C230   1.399       .  A
C229        F236   1.355       .  S
C230        C231   1.406       .  A
C230        F235   1.358       .  S
C231        C784   1.405   1_545  A
C232        C783   1.407       .  A
C232        F233   1.358       .  S
C237        C242   1.399       .  A
C237       C1342   1.404       .  A
C237        F244   1.358       .  S
C238        C239   1.406       .  A
C238       C1341   1.406       .  A
C238       C1127   1.490       .  S
C239        C240   1.396       .  A
C239        F246   1.358       .  S
C240        C241   1.405       .  A
C240        F245   1.354       .  S
C241       C1346   1.406       .  A
C242       C1345   1.405       .  A
C242        F243   1.355       .  S
C247        C252   1.400       .  A
C247       C1352   1.404       .  A
C247        F254   1.357       .  S
C248        C249   1.406       .  A
C248       C1351   1.404       .  A
C248       C1128   1.486       .  S
C249        C250   1.401       .  A
C249        F256   1.358       .  S
C250        C251   1.406       .  A
C250        F255   1.358       .  S
C251       C1356   1.403       .  A
C252       C1355   1.404       .  A
C252        F253   1.357       .  S
C257        C258   1.405       .  A
C257        C262   1.399       .  A
C257        F264   1.358       .  S
C258       C1363   1.406       .  A
C259        C260   1.399       .  A
C259       C1362   1.407       .  A
C259        F266   1.358       .  S
C260       C1365   1.404       .  A
C260        F265   1.358       .  S
C261        C262   1.406       .  A
C261       C1364   1.404       .  A
C261       C1125   1.486       .  S
C262        F263   1.358       .  S
C267        C268   1.402       .  A
C267        C272   1.397       .  A
C267        F274   1.355       .  S
C268       C1373   1.404       .  A
C269        C270   1.397       .  A
C269       C1372   1.406       .  A
C269        F276   1.359       .  S
C270       C1375   1.407       .  A
C270        F275   1.358       .  S
C271        C272   1.404       .  A
C271       C1374   1.405       .  A
C271       C1126   1.483       .  S
C272        F273   1.358       .  S
N277        C282   1.353   1_455  A
N277        C281   1.353   1_455  A
N277        H309   1.041       .  S
N278        C285   1.350   1_655  A
N278        C286   1.350   1_655  A
N279        C284   1.352       .  A
N279        C283   1.353       .  A
N279        H310   1.039   1_655  S
N280        C287   1.351   1_655  A
N280        C288   1.351   1_655  A
C281        C289   1.387       .  A
C281        C297   1.414       .  A
C282        C298   1.414   1_655  A
C282        C290   1.387       .  A
C283        C291   1.387       .  A
C283        C300   1.414       .  A
C284        C299   1.414       .  A
C284        C292   1.387       .  A
C285        C297   1.411   1_455  A
C285        C293   1.386       .  A
C286        C300   1.411   1_455  A
C286        C294   1.386       .  A
C287        C295   1.387       .  A
C287        C298   1.415       .  A
C288        C296   1.386       .  A
C288        C299   1.412   1_455  A
C289        C290   1.376       .  A
C289        H301   1.082       .  S
C290        H302   1.082       .  S
C291        C292   1.377       .  A
C291        H303   1.082       .  S
C292        H304   1.082       .  S
C293        C294   1.373       .  A
C293        H305   1.082       .  S
C294        H306   1.082       .  S
C295        C296   1.375       .  A
C295        H307   1.082       .  S
C296        H308   1.082       .  S
C297       C1641   1.487       .  S
C298       C1651   1.492       .  S
C299       C1618   1.484       .  S
C300       C1628   1.485       .  S
O311        C322   1.291       .  A
O312        C323   1.294       .  A
O313        C324   1.292       .  A
O313       Zr871   2.436       .  S
O314        C325   1.292       .  A
O314      Zr1975   2.437   1_455  S
O315        C877   1.290       .  A
O316        C876   1.297       .  A
O317        C323   1.294       .  A
O317       Zr319   2.448       .  S
O318        C322   1.293       .  A
O318       Zr871   2.442   1_545  S
Zr319       O865   2.435       .  S
Zr319      O1970   2.442       .  S
Zr319       O870   2.442       .  S
Zr319      O1424   2.343       .  S
Zr319       O873   2.345       .  S
Zr319      O1985   2.341       .  S
Zr319       O327   2.346       .  S
O320      Zr1423   2.343   1_455  S
O320      Zr1174   2.345       .  S
O321       Zr871   2.337   1_545  S
O321       Zr624   2.338   1_545  S
C322        C544   1.472       .  S
C323        C534   1.480       .  S
C324        C504   1.483       .  S
C324        O868   1.292       .  A
C325        C494   1.473       .  S
C325        O867   1.293   1_545  A
H326        O327   0.966       .  S
H328        O329   0.965       .  S
O329      Zr1975   2.339   1_455  S
O329      Zr1175   2.337   1_455  S
O329       Zr625   2.334       .  S
O330        C353   1.293       .  A
O330       Zr346   2.442   1_556  S
O331        C354   1.291       .  A
O331       Zr347   2.438       .  S
O332        C355   1.294       .  A
O332       Zr348   2.445       .  S
O333        C356   1.290       .  A
O333       Zr349   2.432       .  S
O334        C357   1.294       .  A
O334       Zr901   2.448       .  S
O335        C358   1.291       .  A
O335       Zr900   2.433   1_544  S
O336        C359   1.295       .  A
O336       Zr350   2.451       .  S
O337        C360   1.294       .  A
O337      Zr1454   2.447       .  S
O338        C359   1.293       .  A
O338       Zr348   2.442       .  S
O339        C360   1.288       .  A
O339       Zr349   2.416   1_556  S
O340        C355   1.292       .  A
O340       Zr346   2.436   1_556  S
O341        C358   1.291       .  A
O341       Zr347   2.430   1_554  S
O342        C357   1.293       .  A
O342      Zr1451   2.446   1_455  S
O343        C356   1.294       .  A
O343      Zr1450   2.445       .  S
O344        C353   1.292       .  A
O344       Zr350   2.437       .  S
O345        C354   1.292       .  A
O345       Zr902   2.442   1_545  S
Zr346      O1447   2.445       .  S
Zr346      O1148   2.339       .  S
Zr346       O352   2.338   1_554  S
Zr346      O1468   2.336   1_554  S
Zr347      O1446   2.448       .  S
Zr347      O1157   2.336   1_556  S
Zr347      O1455   2.331       .  S
Zr347       O362   2.348       .  S
Zr348       O887   2.439   1_556  S
Zr348       O597   2.338   1_556  S
Zr348       O352   2.338       .  S
Zr348       O914   2.350       .  S
Zr349       O886   2.434       .  S
Zr349       O605   2.334       .  S
Zr349       O903   2.346   1_554  S
Zr349       O364   2.340   1_554  S
Zr350      O1441   2.448       .  S
Zr350       O897   2.446       .  S
Zr350      O2007   2.340       .  S
Zr350       O352   2.339       .  S
Zr350      O1468   2.348       .  S
Zr350       O914   2.342       .  S
O351      Zr1451   2.331   1_455  S
O351       Zr901   2.339       .  S
O351      Zr2006   2.339   1_455  S
C353        C527   1.472       .  S
C354        C517   1.468       .  S
C355        C434   1.483       .  S
C356        C454   1.484       .  S
C357        C464   1.486   1_556  S
C358        C444   1.470       .  S
C359        C477   1.487       .  S
C360        C487   1.467       .  S
H361        O362   0.968       .  S
O362       Zr900   2.349   1_545  S
O362       Zr902   2.341   1_545  S
H363        O364   0.966       .  S
O364      Zr1450   2.337   1_556  S
O364      Zr1454   2.347       .  S
N365        C370   1.350       .  A
N365        C369   1.351       .  A
N365        H397   1.041   1_545  S
N366        C373   1.350       .  A
N366        C374   1.349       .  A
N367        C372   1.353   1_565  A
N367        C371   1.354   1_565  A
N367        H398   1.042       .  S
N368        C375   1.351   1_545  A
N368        C376   1.350   1_545  A
C369        C377   1.386       .  A
C369        C385   1.411   1_545  A
C370        C386   1.412       .  A
C370        C378   1.387       .  A
C371        C379   1.389       .  A
C371        C388   1.420   1_545  A
C372        C387   1.414   1_545  A
C372        C380   1.386       .  A
C373        C385   1.410       .  A
C373        C381   1.385       .  A
C374        C388   1.412       .  A
C374        C382   1.387       .  A
C375        C383   1.386       .  A
C375        C386   1.412   1_565  A
C376        C384   1.386       .  A
C376        C387   1.411       .  A
C377        C378   1.378       .  A
C377        H389   1.082       .  S
C378        H390   1.082       .  S
C379        C380   1.378       .  A
C379        H391   1.082       .  S
C380        H392   1.082       .  S
C381        C382   1.375       .  A
C381        H393   1.082       .  S
C382        H394   1.082       .  S
C383        C384   1.375       .  A
C383        H395   1.082       .  S
C384        H396   1.082       .  S
C385        C474   1.487       .  S
C386        C484   1.487       .  S
C387        C497   1.488   1_565  S
C388        C507   1.497       .  S
N399        C404   1.351       .  A
N399        C403   1.352       .  A
N399        H431   1.042   1_556  S
N400        C407   1.351       .  A
N400        C408   1.350       .  A
N401        C406   1.353   1_554  A
N401        C405   1.352   1_554  A
N401        H432   1.042       .  S
N402        C409   1.352       .  A
N402        C410   1.353       .  A
C403        C411   1.388       .  A
C403        C419   1.416       .  A
C404        C420   1.415       .  A
C404        C412   1.388       .  A
C405        C413   1.387       .  A
C405        C422   1.414   1_556  A
C406        C421   1.416   1_556  A
C406        C414   1.387       .  A
C407        C419   1.413   1_554  A
C407        C415   1.386       .  A
C408        C422   1.410       .  A
C408        C416   1.386       .  A
C409        C417   1.387       .  A
C409        C420   1.417   1_554  A
C410        C418   1.385       .  A
C410        C421   1.415       .  A
C411        C412   1.379       .  A
C411        H423   1.082       .  S
C412        H424   1.082       .  S
C413        C414   1.378       .  A
C413        H425   1.082       .  S
C414        H426   1.082       .  S
C415        C416   1.374       .  A
C415        H427   1.082       .  S
C416        H428   1.082       .  S
C417        C418   1.376       .  A
C417        H429   1.082       .  S
C418        H430   1.082       .  S
C419        C437   1.496       .  S
C420        C457   1.495       .  S
C421        C467   1.499       .  S
C422        C447   1.489       .  S
C433        C438   1.395       .  A
C433        F440   1.354       .  S
C434        C435   1.409       .  A
C435        C436   1.401       .  A
C435        F442   1.358       .  S
C436        C437   1.409       .  A
C436        F441   1.358       .  S
C438        F439   1.358       .  S
C443        C444   1.404   1_556  A
C443        C448   1.395       .  A
C443        F450   1.358       .  S
C445        C446   1.399       .  A
C445        F452   1.358       .  S
C446        F451   1.358       .  S
C447        C448   1.407   1_554  A
C448        F449   1.358       .  S
C453        C454   1.407   1_556  A
C453        C458   1.397       .  A
C453        F460   1.356       .  S
C455        C456   1.401       .  A
C455        F462   1.355       .  S
C456        F461   1.358       .  S
C457        C458   1.407       .  A
C458        F459   1.358       .  S
C463        C464   1.407   1_556  A
C463        C468   1.401       .  A
C463        F470   1.356       .  S
C465        C466   1.399       .  A
C465        F472   1.358       .  S
C466        F471   1.358       .  S
C467        C468   1.408   1_554  A
C468        F469   1.358       .  S
C473       C1026   1.408       .  A
C473        C478   1.400       .  A
C473        F480   1.358       .  S
C474       C1025   1.406       .  A
C474        C475   1.404   1_565  A
C475        C476   1.396       .  A
C475        F482   1.358       .  S
C476       C1029   1.406   1_545  A
C476        F481   1.357       .  S
C477       C1028   1.407       .  A
C477        C478   1.409       .  A
C478        F479   1.358       .  S
C483        C484   1.406       .  A
C483        C488   1.402       .  A
C483        F490   1.358       .  S
C484       C1037   1.405   1_545  A
C485       C1036   1.408       .  A
C485        C486   1.400       .  A
C485        F492   1.358       .  S
C486        C487   1.406       .  A
C486        F491   1.359       .  S
C487       C1040   1.402       .  A
C488       C1039   1.407       .  A
C488        F489   1.358       .  S
C493        C494   1.405       .  A
C493        C498   1.400       .  A
C493        F500   1.358       .  S
C494       C1047   1.403   1_545  A
C495       C1046   1.404       .  A
C495        C496   1.397       .  A
C495        F502   1.355       .  S
C496       C1049   1.405       .  A
C496        F501   1.358       .  S
C497       C1048   1.404   1_545  A
C497        C498   1.407       .  A
C498        F499   1.357       .  S
C503       C1056   1.406       .  A
C503        C508   1.401       .  A
C503        F510   1.353       .  S
C504       C1055   1.406       .  A
C504        C505   1.407   1_565  A
C505        C506   1.399       .  A
C505        F512   1.356       .  S
C506        C507   1.411   1_545  A
C506        F511   1.358       .  S
C507       C1060   1.406       .  A
C508       C1059   1.407       .  A
C508        F509   1.358       .  S
C513       C1618   1.403   1_455  A
C513        C518   1.399       .  A
C513        F520   1.358       .  S
C514       C1617   1.403       .  A
C514        C515   1.405       .  A
C514       C1403   1.483       .  S
C515        C516   1.400       .  A
C515        F522   1.358       .  S
C516        C517   1.404       .  A
C516        F521   1.358       .  S
C517       C1622   1.404       .  A
C518       C1621   1.404   1_455  A
C518        F519   1.356       .  S
C523       C1628   1.403   1_455  A
C523        C528   1.398       .  A
C523        F530   1.358       .  S
C524       C1627   1.404       .  A
C524        C525   1.406       .  A
C524       C1404   1.486       .  S
C525        C526   1.399       .  A
C525        F532   1.358       .  S
C526        C527   1.405       .  A
C526        F531   1.358       .  S
C527       C1632   1.404       .  A
C528       C1631   1.404       .  A
C528        F529   1.355       .  S
C533        C534   1.408       .  A
C533        C538   1.402       .  A
C533        F540   1.358       .  S
C534       C1639   1.407       .  A
C535       C1638   1.406   1_455  A
C535        C536   1.397       .  A
C535        F542   1.358       .  S
C536       C1641   1.404   1_455  A
C536        F541   1.358       .  S
C537       C1640   1.405       .  A
C537        C538   1.407       .  A
C537       C1401   1.492       .  S
C538        F539   1.358       .  S
C543        C544   1.403       .  A
C543        C548   1.397       .  A
C543        F550   1.356       .  S
C544       C1649   1.406       .  A
C545       C1648   1.407       .  A
C545        C546   1.401       .  A
C545        F552   1.358       .  S
C546       C1651   1.409       .  A
C546        F551   1.358       .  S
C547       C1650   1.407       .  A
C547        C548   1.407       .  A
C547       C1402   1.491       .  S
C548        F549   1.358       .  S
N553        C558   1.349   1_455  A
N553        C557   1.351   1_455  A
N553        H585   1.040       .  S
N554        C561   1.352       .  A
N554        C562   1.349       .  A
N555        C560   1.354       .  A
N555        C559   1.352   1_455  A
N555        H586   1.040       .  S
N556        C563   1.349       .  A
N556        C564   1.351       .  A
C557        C565   1.386       .  A
C557        C573   1.410   1_655  A
C558        C574   1.409   1_655  A
C558        C566   1.388       .  A
C559        C567   1.388       .  A
C559        C576   1.417   1_655  A
C560        C575   1.415       .  A
C560        C568   1.386   1_455  A
C561        C573   1.412       .  A
C561        C569   1.385       .  A
C562        C576   1.412       .  A
C562        C570   1.387       .  A
C563        C571   1.386       .  A
C563        C574   1.410       .  A
C564        C572   1.386       .  A
C564        C575   1.410       .  A
C565        C566   1.376       .  A
C565        H577   1.082       .  S
C566        H578   1.082       .  S
C567        C568   1.378       .  A
C567        H579   1.082       .  S
C568        H580   1.082       .  S
C569        C570   1.374       .  A
C569        H581   1.082       .  S
C570        H582   1.082       .  S
C571        C572   1.373       .  A
C571        H583   1.082       .  S
C572        H584   1.082       .  S
C573       C1917   1.487       .  S
C574       C1927   1.476       .  S
C575       C1894   1.490       .  S
C576       C1904   1.485       .  S
O587        C598   1.290       .  A
O587       Zr899   2.431   1_554  S
O588        C599   1.292       .  A
O588       Zr898   2.438   1_554  S
O589        C600   1.291       .  A
O590        C601   1.291       .  A
O590      Zr1147   2.435   1_455  S
O591       Zr901   2.436   1_554  S
O592       Zr900   2.439   1_554  S
O593        C599   1.292       .  A
O593       Zr595   2.438       .  S
O594        C598   1.293       .  A
Zr595      O1142   2.440   1_565  S
Zr595      O1700   2.343       .  S
Zr595      O1157   2.344   1_565  S
Zr595       O603   2.344       .  S
O596      Zr1699   2.342   1_455  S
O596      Zr2002   2.339   1_454  S
O596       Zr901   2.340   1_564  S
O597       Zr899   2.344   1_554  S
C598        C820   1.468       .  S
C599        C810   1.473       .  S
C600        C780   1.483       .  S
C601        C770   1.464       .  S
H602        O603   0.966       .  S
O603       Zr898   2.348   1_554  S
O603       Zr900   2.341   1_554  S
H604        O605   0.966       .  S
O605      Zr1147   2.339   1_455  S
O605      Zr2003   2.345       .  S
O606        C629   1.291       .  A
O606       Zr622   2.434       .  S
O607        C630   1.293       .  A
O607       Zr623   2.452       .  S
O608        C631   1.293       .  A
O608       Zr624   2.443       .  S
O609        C632   1.291       .  A
O609       Zr625   2.431   1_565  S
O610        C633   1.294       .  A
O611        C634   1.293       .  A
O612        C635   1.293       .  A
O612       Zr626   2.441   1_565  S
O613        C636   1.292       .  A
O613      Zr1730   2.434   1_455  S
O614        C635   1.292       .  A
O614       Zr624   2.436       .  S
O615        C636   1.293       .  A
O615       Zr625   2.440       .  S
O616        C631   1.294       .  A
O616       Zr622   2.451       .  S
O617        C634   1.295       .  A
O617       Zr623   2.455       .  S
O618        C633   1.292       .  A
O618      Zr1727   2.433   1_455  S
O619        C632   1.292       .  A
O619      Zr1726   2.436       .  S
O620        C629   1.291       .  A
O620       Zr626   2.435   1_565  S
O621        C630   1.290       .  A
Zr622       O864   2.439       .  S
Zr622      O1723   2.435       .  S
Zr622      O1976   2.339       .  S
Zr622       O879   2.345       .  S
Zr622       O628   2.333       .  S
Zr622      O1744   2.342       .  S
Zr623       O863   2.430       .  S
Zr623      O1722   2.439       .  S
Zr623       O873   2.351       .  S
Zr623      O1985   2.350       .  S
Zr623      O1731   2.337       .  S
Zr623       O638   2.335       .  S
Zr624       O868   2.437       .  S
Zr624       O879   2.342       .  S
Zr624       O628   2.334       .  S
Zr625       O867   2.441   1_545  S
Zr625       O872   2.338   1_545  S
Zr625       O640   2.342   1_545  S
Zr626      O1717   2.438       .  S
Zr626      O1179   2.341       .  S
Zr626       O628   2.334   1_545  S
Zr626      O1744   2.344   1_545  S
O627      Zr1727   2.339   1_455  S
O627      Zr1178   2.341       .  S
C629        C803   1.470       .  S
C630        C793   1.472       .  S
C631        C710   1.485       .  S
C632        C730   1.479       .  S
C633        C740   1.480       .  S
C634        C720   1.483       .  S
C635        C753   1.482       .  S
C636        C763   1.472       .  S
H637        O638   0.968       .  S
H639        O640   0.966       .  S
O640      Zr1726   2.338       .  S
O640      Zr1730   2.342   1_465  S
N641        C646   1.351       .  A
N641        C645   1.351       .  A
N641        H673   1.040       .  S
N642        C649   1.351       .  A
N642        C650   1.351       .  A
N643        C648   1.350       .  A
N643        C647   1.352       .  A
N643        H674   1.040       .  S
N644        C651   1.353       .  A
N644        C652   1.351       .  A
C645        C653   1.388       .  A
C645        C661   1.414       .  A
C646        C662   1.412       .  A
C646        C654   1.387       .  A
C647        C655   1.387       .  A
C647        C664   1.414       .  A
C648        C663   1.411       .  A
C648        C656   1.387       .  A
C649        C661   1.412       .  A
C649        C657   1.386       .  A
C650        C664   1.412       .  A
C650        C658   1.386       .  A
C651        C659   1.386       .  A
C651        C662   1.415       .  A
C652        C660   1.386       .  A
C652        C663   1.413       .  A
C653        C654   1.378       .  A
C653        H665   1.082       .  S
C654        H666   1.082       .  S
C655        C656   1.377       .  A
C655        H667   1.082       .  S
C656        H668   1.083       .  S
C657        C658   1.373       .  A
C657        H669   1.082       .  S
C658        H670   1.082       .  S
C659        C660   1.375       .  A
C659        H671   1.082       .  S
C660        H672   1.082       .  S
C661        C750   1.490       .  S
C662        C760   1.489       .  S
C663        C773   1.481       .  S
C664        C783   1.494       .  S
N675        C680   1.351       .  A
N675        C679   1.352       .  A
N675        H707   1.041       .  S
N676        C683   1.353       .  A
N676        C684   1.352       .  A
N677        C682   1.353       .  A
N677        C681   1.353       .  A
N677        H708   1.041       .  S
N678        C685   1.350       .  A
N678        C686   1.351       .  A
C679        C687   1.387       .  A
C679        C695   1.414       .  A
C680        C696   1.414       .  A
C680        C688   1.389       .  A
C681        C689   1.387       .  A
C681        C698   1.417       .  A
C682        C697   1.415       .  A
C682        C690   1.387       .  A
C683        C695   1.414       .  A
C683        C691   1.386       .  A
C684        C698   1.415       .  A
C684        C692   1.386       .  A
C685        C693   1.387       .  A
C685        C696   1.414       .  A
C686        C694   1.386       .  A
C686        C697   1.412       .  A
C687        C688   1.376       .  A
C687        H699   1.082       .  S
C688        H700   1.082       .  S
C689        C690   1.378       .  A
C689        H701   1.082       .  S
C690        H702   1.082       .  S
C691        C692   1.374       .  A
C691        H703   1.082       .  S
C692        H704   1.082       .  S
C693        C694   1.374       .  A
C693        H705   1.082       .  S
C694        H706   1.082       .  S
C695        C713   1.494       .  S
C696        C733   1.489       .  S
C697        C743   1.492       .  S
C698        C723   1.496       .  S
C709        C986   1.407   1_554  A
C709        C714   1.396       .  A
C709        F716   1.354       .  S
C710        C985   1.406       .  A
C710        C711   1.408       .  A
C711        C712   1.403       .  A
C711        F718   1.358       .  S
C712        C713   1.408       .  A
C712        F717   1.358       .  S
C713        C990   1.405       .  A
C714        C989   1.404   1_554  A
C714        F715   1.358       .  S
C719        C720   1.407       .  A
C719        C724   1.402       .  A
C719        F726   1.358       .  S
C720        C997   1.408       .  A
C721        C996   1.407       .  A
C721        C722   1.400       .  A
C721        F728   1.358       .  S
C722        C999   1.406       .  A
C722        F727   1.358       .  S
C723        C998   1.407       .  A
C723        C724   1.409       .  A
C724        F725   1.358       .  S
C729        C730   1.406       .  A
C729        C734   1.394       .  A
C729        F736   1.353       .  S
C730       C1007   1.407       .  A
C731       C1006   1.408   1_554  A
C731        C732   1.398       .  A
C731        F738   1.354       .  S
C732       C1009   1.408   1_554  A
C732        F737   1.358       .  S
C733       C1008   1.406       .  A
C733        C734   1.405       .  A
C734        F735   1.358       .  S
C739        C740   1.406       .  A
C739        C744   1.396       .  A
C739        F746   1.355       .  S
C740       C1017   1.408       .  A
C741       C1016   1.405       .  A
C741        C742   1.401       .  A
C741        F748   1.358       .  S
C742       C1019   1.407       .  A
C742        F747   1.357       .  S
C743       C1018   1.407       .  A
C743        C744   1.405       .  A
C744        F745   1.358       .  S
C749        C754   1.402       .  A
C749        F756   1.358       .  S
C750        C751   1.407       .  A
C751        C752   1.399       .  A
C751        F758   1.358       .  S
C752        F757   1.357       .  S
C753        C754   1.409       .  A
C754        F755   1.358       .  S
C759        C760   1.404       .  A
C759        C764   1.394       .  A
C759        F766   1.357       .  S
C761        C762   1.398       .  A
C761        F768   1.358       .  S
C762        C763   1.406   1_565  A
C762        F767   1.358       .  S
C764        F765   1.358       .  S
C769        C770   1.403       .  A
C769        C774   1.397       .  A
C769        F776   1.358       .  S
C771        C772   1.396       .  A
C771        F778   1.354       .  S
C772        F777   1.358       .  S
C773        C774   1.404       .  A
C774        F775   1.357       .  S
C779        C784   1.396       .  A
C779        F786   1.353       .  S
C780        C781   1.407       .  A
C781        C782   1.397       .  A
C781        F788   1.353       .  S
C782        C783   1.407       .  A
C782        F787   1.358       .  S
C784        F785   1.359       .  S
C789       C1894   1.405       .  A
C789        C794   1.402       .  A
C789        F796   1.358       .  S
C790       C1893   1.404       .  A
C790        C791   1.404       .  A
C790       C1679   1.485       .  S
C791        C792   1.399       .  A
C791        F798   1.358       .  S
C792        C793   1.404       .  A
C792        F797   1.356       .  S
C793       C1898   1.404       .  A
C794       C1897   1.405       .  A
C794        F795   1.354       .  S
C799       C1904   1.403       .  A
C799        C804   1.395       .  A
C799        F806   1.358       .  S
C800       C1903   1.402       .  A
C800        C801   1.407       .  A
C800       C1680   1.483       .  S
C801        C802   1.399       .  A
C801        F808   1.358       .  S
C802        C803   1.405       .  A
C802        F807   1.358       .  S
C803       C1908   1.404       .  A
C804       C1907   1.404       .  A
C804        F805   1.351       .  S
C809        C810   1.405       .  A
C809        C814   1.396       .  A
C809        F816   1.358       .  S
C810       C1915   1.406       .  A
C811       C1914   1.406       .  A
C811        C812   1.401       .  A
C811        F818   1.358       .  S
C812       C1917   1.408       .  A
C812        F817   1.358       .  S
C813       C1916   1.408       .  A
C813        C814   1.405       .  A
C813       C1677   1.490       .  S
C814        F815   1.358       .  S
C819        C820   1.402       .  A
C819        C824   1.394       .  A
C819        F826   1.352       .  S
C820       C1925   1.405       .  A
C821       C1924   1.405       .  A
C821        C822   1.398       .  A
C821        F828   1.358       .  S
C822       C1927   1.404       .  A
C822        F827   1.358       .  S
C823       C1926   1.405       .  A
C823        C824   1.402       .  A
C823       C1678   1.479       .  S
C824        F825   1.358       .  S
N829        C834   1.350   1_455  A
N829        C833   1.352   1_455  A
N829        H861   1.041       .  S
N830        C837   1.352   1_655  A
N830        C838   1.349   1_655  A
N831        C836   1.355   1_455  A
N831        C835   1.352   1_455  A
N831        H862   1.041       .  S
N832        C839   1.351       .  A
N832        C840   1.353       .  A
C833        C841   1.385       .  A
C833        C849   1.410   1_655  A
C834        C850   1.413   1_655  A
C834        C842   1.389       .  A
C835        C843   1.387       .  A
C835        C852   1.415       .  A
C836        C851   1.418   1_655  A
C836        C844   1.387       .  A
C837        C849   1.411       .  A
C837        C845   1.385       .  A
C838        C852   1.411   1_455  A
C838        C846   1.387       .  A
C839        C847   1.386       .  A
C839        C850   1.414       .  A
C840        C848   1.386       .  A
C840        C851   1.417       .  A
C841        C842   1.376       .  A
C841        H853   1.082       .  S
C842        H854   1.082       .  S
C843        C844   1.377       .  A
C843        H855   1.082       .  S
C844        H856   1.082       .  S
C845        C846   1.372       .  A
C845        H857   1.082       .  S
C846        H858   1.082       .  S
C847        C848   1.375       .  A
C847        H859   1.082       .  S
C848        H860   1.082       .  S
C849       C2193   1.487       .  S
C850       C2203   1.487       .  S
C851       C2170   1.501       .  S
C852       C2180   1.484       .  S
O863        C874   1.291       .  A
O864        C875   1.292       .  A
O865        C876   1.291       .  A
O866        C877   1.291       .  A
O866      Zr1423   2.438   1_455  S
O869        C875   1.292       .  A
O869       Zr871   2.435       .  S
O870        C874   1.293       .  A
Zr871      O1418   2.436   1_565  S
Zr871      O1976   2.338       .  S
Zr871      O1433   2.337   1_565  S
Zr871       O879   2.345       .  S
O872      Zr1975   2.340   1_465  S
O872      Zr1726   2.338       .  S
C874       C1096   1.470       .  S
C875       C1086   1.469       .  S
C876       C1056   1.487       .  S
C877       C1046   1.471       .  S
H878        O879   0.966       .  S
H880        O881   0.965       .  S
O881      Zr1423   2.336   1_455  S
O881      Zr1727   2.348   1_455  S
O882        C905   1.292       .  A
O882       Zr898   2.434       .  S
O883        C906   1.293       .  A
O883       Zr899   2.445       .  S
O884        C907   1.291       .  A
O884       Zr900   2.433       .  S
O885        C908   1.293       .  A
O885       Zr901   2.442   1_565  S
O886        C909   1.290       .  A
O887        C910   1.292       .  A
O888        C911   1.293       .  A
O888       Zr902   2.441       .  S
O889        C912   1.295       .  A
O889      Zr2006   2.454   1_455  S
O890        C911   1.292       .  A
O890       Zr900   2.437       .  S
O891        C912   1.291       .  A
O891       Zr901   2.429       .  S
O892        C907   1.294       .  A
O892       Zr898   2.448       .  S
O893        C910   1.294   1_556  A
O893       Zr899   2.448       .  S
O894        C909   1.293       .  A
O894      Zr2003   2.446       .  S
O895        C908   1.293       .  A
O895      Zr2002   2.440   1_455  S
O896        C905   1.292       .  A
O896       Zr902   2.441       .  S
O897        C906   1.294       .  A
Zr898      O1999   2.445       .  S
Zr898      O1700   2.339   1_556  S
Zr898       O904   2.335       .  S
Zr898      O2020   2.343       .  S
Zr899      O1998   2.445       .  S
Zr899      O1709   2.346   1_556  S
Zr899      O2007   2.335       .  S
Zr899       O914   2.342       .  S
Zr900       O904   2.335       .  S
Zr901       O916   2.346   1_545  S
Zr902      O1993   2.446   1_565  S
Zr902      O1455   2.340   1_565  S
Zr902       O904   2.336       .  S
Zr902      O2020   2.346       .  S
O903      Zr2003   2.334   1_556  S
O903      Zr1454   2.338       .  S
C905       C1079   1.472       .  S
C906       C1069   1.485       .  S
C907        C986   1.482       .  S
C908       C1006   1.486       .  S
C909       C1016   1.472       .  S
C910        C996   1.476       .  S
C911       C1029   1.478       .  S
C912       C1039   1.476       .  S
H913        O914   0.968       .  S
H915        O916   0.966       .  S
O916      Zr2002   2.347   1_455  S
O916      Zr2006   2.349   1_465  S
N917        C922   1.350       .  A
N917        C921   1.352       .  A
N917        H949   1.040       .  S
N918        C925   1.352       .  A
N918        C926   1.352       .  A
N919        C924   1.352       .  A
N919        C923   1.354       .  A
N919        H950   1.040       .  S
N920        C927   1.352       .  A
N920        C928   1.352       .  A
C921        C929   1.388       .  A
C921        C937   1.414       .  A
C922        C938   1.411       .  A
C922        C930   1.387       .  A
C923        C931   1.387       .  A
C923        C940   1.417       .  A
C924        C939   1.415       .  A
C924        C932   1.387       .  A
C925        C937   1.415       .  A
C925        C933   1.386       .  A
C926        C940   1.413       .  A
C926        C934   1.385       .  A
C927        C935   1.386       .  A
C927        C938   1.415       .  A
C928        C936   1.386       .  A
C928        C939   1.414       .  A
C929        C930   1.377       .  A
C929        H941   1.082       .  S
C930        H942   1.083       .  S
C931        C932   1.377       .  A
C931        H943   1.082       .  S
C932        H944   1.082       .  S
C933        C934   1.374       .  A
C933        H945   1.082       .  S
C934        H946   1.082       .  S
C935        C936   1.375       .  A
C935        H947   1.082       .  S
C936        H948   1.082       .  S
C937       C1026   1.496       .  S
C938       C1036   1.486       .  S
C939       C1049   1.488       .  S
C940       C1059   1.497       .  S
N951        C956   1.352       .  A
N951        C955   1.352       .  A
N951        H983   1.041   1_556  S
N952        C959   1.351       .  A
N952        C960   1.350       .  A
N953        C958   1.352       .  A
N953        C957   1.354       .  A
N953        H984   1.040       .  S
N954        C961   1.352       .  A
N954        C962   1.351       .  A
C955        C963   1.387       .  A
C955        C971   1.414       .  A
C956        C972   1.416       .  A
C956        C964   1.388       .  A
C957        C965   1.387   1_554  A
C957        C974   1.416       .  A
C958        C973   1.414       .  A
C958        C966   1.387   1_554  A
C959        C971   1.412   1_554  A
C959        C967   1.387       .  A
C960        C974   1.411       .  A
C960        C968   1.385       .  A
C961        C969   1.388       .  A
C961        C972   1.417   1_554  A
C962        C970   1.385       .  A
C962        C973   1.412       .  A
C963        C964   1.377       .  A
C963        H975   1.082       .  S
C964        H976   1.082       .  S
C965        C966   1.376       .  A
C965        H977   1.082       .  S
C966        H978   1.082       .  S
C967        C968   1.373       .  A
C967        H979   1.082       .  S
C968        H980   1.082       .  S
C969        C970   1.375       .  A
C969        H981   1.082       .  S
C970        H982   1.082       .  S
C971        C989   1.490       .  S
C972       C1009   1.497       .  S
C973       C1019   1.488       .  S
C974        C999   1.491       .  S
C985        C990   1.397       .  A
C985        F992   1.352       .  S
C986        C987   1.407       .  A
C987        C988   1.400       .  A
C987        F994   1.358       .  S
C988        C989   1.407       .  A
C988        F993   1.358       .  S
C990        F991   1.358       .  S
C995        C996   1.405   1_556  A
C995       C1000   1.399       .  A
C995       F1002   1.358       .  S
C997        C998   1.400       .  A
C997       F1004   1.358       .  S
C998       F1003   1.358       .  S
C999       C1000   1.408   1_554  A
C1000      F1001   1.358       .  S
C1005      C1006   1.408       .  A
C1005      C1010   1.398       .  A
C1005      F1012   1.355       .  S
C1007      C1008   1.396       .  A
C1007      F1014   1.354       .  S
C1008      F1013   1.358       .  S
C1009      C1010   1.407       .  A
C1010      F1011   1.358       .  S
C1015      C1016   1.402   1_556  A
C1015      C1020   1.397       .  A
C1015      F1022   1.354       .  S
C1017      C1018   1.402       .  A
C1017      F1024   1.358       .  S
C1018      F1023   1.358       .  S
C1019      C1020   1.405   1_554  A
C1020      F1021   1.358       .  S
C1025      C1030   1.401       .  A
C1025      F1032   1.358       .  S
C1026      C1027   1.406       .  A
C1027      C1028   1.399       .  A
C1027      F1034   1.358       .  S
C1028      F1033   1.353       .  S
C1029      C1030   1.409       .  A
C1030      F1031   1.358       .  S
C1035      C1036   1.404       .  A
C1035      C1040   1.395       .  A
C1035      F1042   1.357       .  S
C1037      C1038   1.397       .  A
C1037      F1044   1.358       .  S
C1038      C1039   1.406   1_565  A
C1038      F1043   1.358       .  S
C1040      F1041   1.358       .  S
C1045      C1046   1.404       .  A
C1045      C1050   1.400       .  A
C1045      F1052   1.358       .  S
C1047      C1048   1.397       .  A
C1047      F1054   1.353       .  S
C1048      F1053   1.358       .  S
C1049      C1050   1.406       .  A
C1050      F1051   1.357       .  S
C1055      C1060   1.395       .  A
C1055      F1062   1.353       .  S
C1056      C1057   1.408       .  A
C1057      C1058   1.400       .  A
C1057      F1064   1.354       .  S
C1058      C1059   1.407       .  A
C1058      F1063   1.358       .  S
C1060      F1061   1.358       .  S
C1065      C2170   1.409       .  A
C1065      C1070   1.402       .  A
C1065      F1072   1.358       .  S
C1066      C2169   1.408       .  A
C1066      C1067   1.407       .  A
C1066      C1955   1.497       .  S
C1067      C1068   1.399       .  A
C1067      F1074   1.358       .  S
C1068      C1069   1.406       .  A
C1068      F1073   1.352       .  S
C1069      C2174   1.407       .  A
C1070      C2173   1.408       .  A
C1070      F1071   1.354       .  S
C1075      C2180   1.402   1_455  A
C1075      C1080   1.392       .  A
C1075      F1082   1.358       .  S
C1076      C2179   1.403       .  A
C1076      C1077   1.407       .  A
C1076      C1956   1.485       .  S
C1077      C1078   1.400       .  A
C1077      F1084   1.358       .  S
C1078      C1079   1.406       .  A
C1078      F1083   1.358       .  S
C1079      C2184   1.404       .  A
C1080      C2183   1.403   1_455  A
C1080      F1081   1.354       .  S
C1085      C1086   1.403       .  A
C1085      C1090   1.395       .  A
C1085      F1092   1.358       .  S
C1086      C2191   1.406       .  A
C1087      C2190   1.406       .  A
C1087      C1088   1.401       .  A
C1087      F1094   1.359       .  S
C1088      C2193   1.408       .  A
C1088      F1093   1.358       .  S
C1089      C2192   1.407       .  A
C1089      C1090   1.404       .  A
C1089      C1953   1.485       .  S
C1090      F1091   1.358       .  S
C1095      C1096   1.402       .  A
C1095      C1100   1.394       .  A
C1095      F1102   1.353       .  S
C1096      C2201   1.406       .  A
C1097      C2200   1.406       .  A
C1097      C1098   1.399       .  A
C1097      F1104   1.358       .  S
C1098      C2203   1.407       .  A
C1098      F1103   1.358       .  S
C1099      C2202   1.407       .  A
C1099      C1100   1.404       .  A
C1099      C1954   1.485       .  S
C1100      F1101   1.358       .  S
N1105      C1110   1.352       .  A
N1105      C1109   1.352       .  A
N1105      H1137   1.040       .  S
N1106      C1113   1.350       .  A
N1106      C1114   1.351       .  A
N1107      C1112   1.353       .  A
N1107      C1111   1.353       .  A
N1107      H1138   1.040       .  S
N1108      C1115   1.351       .  A
N1108      C1116   1.350       .  A
C1109      C1117   1.388       .  A
C1109      C1125   1.415       .  A
C1110      C1126   1.412       .  A
C1110      C1118   1.386       .  A
C1111      C1119   1.386       .  A
C1111      C1128   1.414       .  A
C1112      C1127   1.416       .  A
C1112      C1120   1.388       .  A
C1113      C1125   1.413       .  A
C1113      C1121   1.387       .  A
C1114      C1128   1.411       .  A
C1114      C1122   1.386       .  A
C1115      C1123   1.385       .  A
C1115      C1126   1.409       .  A
C1116      C1124   1.388       .  A
C1116      C1127   1.413       .  A
C1117      C1118   1.377       .  A
C1117      H1129   1.082       .  S
C1118      H1130   1.083       .  S
C1119      C1120   1.377       .  A
C1119      H1131   1.082       .  S
C1120      H1132   1.082       .  S
C1121      C1122   1.373       .  A
C1121      H1133   1.082       .  S
C1122      H1134   1.082       .  S
C1123      C1124   1.372       .  A
C1123      H1135   1.082       .  S
C1124      H1136   1.082       .  S
O1139      C1150   1.291       .  A
O1139     Zr1451   2.431   1_454  S
O1140      C1151   1.292       .  A
O1140     Zr1450   2.436       .  S
O1141      C1152   1.293       .  A
O1141     Zr1699   2.451       .  S
O1142      C1153   1.292   1_545  A
O1143      C1705   1.289       .  A
O1143     Zr1453   2.427       .  S
O1144      C1704   1.294       .  A
O1144     Zr1452   2.449       .  S
O1145      C1151   1.294       .  A
O1145     Zr1147   2.447   1_455  S
O1146      C1150   1.292   1_655  A
O1146     Zr1699   2.433   1_545  S
Zr1147     O1693   2.431       .  S
Zr1147     O1698   2.446       .  S
Zr1147     O1701   2.339       .  S
Zr1147     O1155   2.347       .  S
O1148     Zr1453   2.333       .  S
O1149     Zr1699   2.339   1_545  S
O1149     Zr1451   2.349   1_554  S
O1149     Zr2004   2.341   1_544  S
C1150      C1372   1.469       .  S
C1151      C1362   1.474       .  S
C1152      C1332   1.469       .  S
C1152      O1696   1.290       .  A
C1153      C1322   1.471       .  S
C1153      O1695   1.292       .  A
H1154      O1155   0.966       .  S
O1155     Zr1450   2.349   1_655  S
O1155     Zr1452   2.342       .  S
H1156      O1157   0.966       .  S
O1157     Zr2005   2.336   1_544  S
O1158      C1181   1.294       .  A
O1158     Zr1174   2.452       .  S
O1159      C1182   1.292       .  A
O1159     Zr1175   2.439   1_455  S
O1160      C1183   1.294       .  A
O1160     Zr1176   2.443       .  S
O1161      C1184   1.292       .  A
O1161     Zr1177   2.442       .  S
O1162      C1185   1.293       .  A
O1162     Zr1729   2.444       .  S
O1163      C1186   1.292       .  A
O1163     Zr1728   2.435   1_545  S
O1164      C1187   1.295       .  A
O1164     Zr1178   2.450   1_655  S
O1165      C1188   1.294       .  A
O1166      C1187   1.292       .  A
O1166     Zr1176   2.434       .  S
O1167      C1188   1.288       .  A
O1167     Zr1177   2.417       .  S
O1168      C1183   1.294       .  A
O1168     Zr1174   2.445   1_655  S
O1169      C1186   1.292       .  A
O1169     Zr1175   2.435       .  S
O1170      C1185   1.292       .  A
O1171      C1184   1.295       .  A
O1172      C1181   1.291       .  A
O1172     Zr1178   2.433       .  S
O1173      C1182   1.292   1_655  A
O1173     Zr1730   2.440       .  S
Zr1174     O1416   2.440   1_455  S
Zr1174     O1431   2.350   1_455  S
Zr1174     O1180   2.339   1_455  S
Zr1175     O1415   2.435   1_655  S
Zr1175     O1425   2.343       .  S
Zr1175     O1190   2.345       .  S
Zr1176     O1420   2.461       .  S
Zr1176     O1715   2.447       .  S
Zr1176     O1977   2.340       .  S
Zr1176     O1431   2.338       .  S
Zr1176     O1180   2.345       .  S
Zr1176     O1742   2.351       .  S
Zr1177     O1419   2.433       .  S
Zr1177     O1714   2.449       .  S
Zr1177     O1424   2.336       .  S
Zr1177     O1985   2.335       .  S
Zr1177     O1731   2.349       .  S
Zr1177     O1192   2.346       .  S
Zr1178     O1725   2.438       .  S
Zr1178     O1180   2.340   1_455  S
Zr1178     O1742   2.341   1_455  S
O1179     Zr1729   2.339       .  S
C1181      C1355   1.472       .  S
C1182      C1345   1.473       .  S
C1183      C1262   1.486       .  S
C1184      C1282   1.490       .  S
C1185      C1292   1.483       .  S
C1186      C1272   1.474       .  S
C1187      C1305   1.482       .  S
C1188      C1315   1.466       .  S
H1189      O1190   0.968       .  S
O1190     Zr1728   2.347   1_545  S
O1190     Zr1730   2.342       .  S
H1191      O1192   0.966       .  S
N1193      C1198   1.353   1_565  A
N1193      C1197   1.353   1_565  A
N1193      H1225   1.041       .  S
N1194      C1201   1.353       .  A
N1194      C1202   1.352       .  A
N1195      C1200   1.354       .  A
N1195      C1199   1.353       .  A
N1195      H1226   1.039       .  S
N1196      C1203   1.351       .  A
N1196      C1204   1.351       .  A
C1197      C1205   1.388       .  A
C1197      C1213   1.416   1_545  A
C1198      C1214   1.414   1_545  A
C1198      C1206   1.387       .  A
C1199      C1207   1.387   1_565  A
C1199      C1216   1.414       .  A
C1200      C1215   1.415       .  A
C1200      C1208   1.387   1_565  A
C1201      C1213   1.418       .  A
C1201      C1209   1.387       .  A
C1202      C1216   1.412       .  A
C1202      C1210   1.385       .  A
C1203      C1211   1.387       .  A
C1203      C1214   1.413       .  A
C1204      C1212   1.386       .  A
C1204      C1215   1.412       .  A
C1205      C1206   1.376       .  A
C1205      H1217   1.082       .  S
C1206      H1218   1.082       .  S
C1207      C1208   1.375       .  A
C1207      H1219   1.082       .  S
C1208      H1220   1.082       .  S
C1209      C1210   1.372       .  A
C1209      H1221   1.082       .  S
C1210      H1222   1.082       .  S
C1211      C1212   1.373       .  A
C1211      H1223   1.082       .  S
C1212      H1224   1.082       .  S
C1213      C1302   1.497       .  S
C1214      C1312   1.488       .  S
C1215      C1325   1.489       .  S
C1216      C1335   1.485       .  S
N1227      C1232   1.351       .  A
N1227      C1231   1.351       .  A
N1227      H1259   1.042       .  S
N1228      C1235   1.350       .  A
N1228      C1236   1.348       .  A
N1229      C1234   1.351       .  A
N1229      C1233   1.351       .  A
N1229      H1260   1.043       .  S
N1230      C1237   1.351       .  A
N1230      C1238   1.351       .  A
C1231      C1239   1.387       .  A
C1231      C1247   1.414       .  A
C1232      C1248   1.413       .  A
C1232      C1240   1.387       .  A
C1233      C1241   1.387       .  A
C1233      C1250   1.412       .  A
C1234      C1249   1.413       .  A
C1234      C1242   1.388       .  A
C1235      C1247   1.412       .  A
C1235      C1243   1.386       .  A
C1236      C1250   1.409       .  A
C1236      C1244   1.386       .  A
C1237      C1245   1.386       .  A
C1237      C1248   1.414       .  A
C1238      C1246   1.385       .  A
C1238      C1249   1.413       .  A
C1239      C1240   1.379       .  A
C1239      H1251   1.082       .  S
C1240      H1252   1.082       .  S
C1241      C1242   1.377       .  A
C1241      H1253   1.082       .  S
C1242      H1254   1.082       .  S
C1243      C1244   1.376       .  A
C1243      H1255   1.082       .  S
C1244      H1256   1.082       .  S
C1245      C1246   1.376       .  A
C1245      H1257   1.082       .  S
C1246      H1258   1.082       .  S
C1247      C1265   1.495       .  S
C1248      C1285   1.493       .  S
C1249      C1295   1.495       .  S
C1250      C1275   1.488       .  S
C1261      C1538   1.407   1_554  A
C1261      C1266   1.397       .  A
C1261      F1268   1.354       .  S
C1262      C1537   1.408       .  A
C1262      C1263   1.410       .  A
C1263      C1264   1.402       .  A
C1263      F1270   1.358       .  S
C1264      C1265   1.409       .  A
C1264      F1269   1.358       .  S
C1265      C1542   1.407       .  A
C1266      C1541   1.406   1_554  A
C1266      F1267   1.358       .  S
C1271      C1272   1.405       .  A
C1271      C1276   1.396       .  A
C1271      F1278   1.358       .  S
C1272      C1549   1.407       .  A
C1273      C1548   1.406       .  A
C1273      C1274   1.398       .  A
C1273      F1280   1.358       .  S
C1274      C1551   1.407       .  A
C1274      F1279   1.358       .  S
C1275      C1550   1.407       .  A
C1275      C1276   1.407       .  A
C1276      F1277   1.358       .  S
C1281      C1282   1.409       .  A
C1281      C1286   1.399       .  A
C1281      F1288   1.356       .  S
C1282      C1559   1.410       .  A
C1283      C1558   1.409       .  A
C1283      C1284   1.401       .  A
C1283      F1290   1.357       .  S
C1284      C1561   1.408   1_554  A
C1284      F1289   1.358       .  S
C1285      C1560   1.406       .  A
C1285      C1286   1.406       .  A
C1286      F1287   1.358       .  S
C1291      C1292   1.407       .  A
C1291      C1296   1.397       .  A
C1291      F1298   1.354       .  S
C1292      C1569   1.408       .  A
C1293      C1568   1.408       .  A
C1293      C1294   1.402       .  A
C1293      F1300   1.358       .  S
C1294      C1571   1.408       .  A
C1294      F1299   1.358       .  S
C1295      C1570   1.409       .  A
C1295      C1296   1.407       .  A
C1296      F1297   1.358       .  S
C1301      C1854   1.407       .  A
C1301      C1306   1.399       .  A
C1301      F1308   1.358       .  S
C1302      C1853   1.410       .  A
C1302      C1303   1.407   1_565  A
C1303      C1304   1.395       .  A
C1303      F1310   1.358       .  S
C1304      C1857   1.406   1_545  A
C1304      F1309   1.355       .  S
C1305      C1856   1.406       .  A
C1305      C1306   1.408       .  A
C1306      F1307   1.358       .  S
C1311      C1312   1.407   1_545  A
C1311      C1316   1.399       .  A
C1311      F1318   1.358       .  S
C1312      C1865   1.405       .  A
C1313      C1864   1.408       .  A
C1313      C1314   1.401       .  A
C1313      F1320   1.358       .  S
C1314      C1315   1.406       .  A
C1314      F1319   1.359       .  S
C1315      C1868   1.402       .  A
C1316      C1867   1.405       .  A
C1316      F1317   1.358       .  S
C1321      C1322   1.405   1_545  A
C1321      C1326   1.401       .  A
C1321      F1328   1.358       .  S
C1322      C1875   1.403       .  A
C1323      C1874   1.404       .  A
C1323      C1324   1.398       .  A
C1323      F1330   1.358       .  S
C1324      C1877   1.405       .  A
C1324      F1329   1.358       .  S
C1325      C1876   1.405       .  A
C1325      C1326   1.408   1_565  A
C1326      F1327   1.358       .  S
C1331      C1884   1.405       .  A
C1331      C1336   1.398       .  A
C1331      F1338   1.353       .  S
C1332      C1883   1.406       .  A
C1332      C1333   1.402   1_565  A
C1333      C1334   1.398       .  A
C1333      F1340   1.357       .  S
C1334      C1335   1.405   1_545  A
C1334      F1339   1.358       .  S
C1335      C1888   1.405       .  A
C1336      C1887   1.406       .  A
C1336      F1337   1.358       .  S
C1341      C1346   1.399       .  A
C1341      F1348   1.358       .  S
C1342      C1343   1.405   1_455  A
C1343      C1344   1.398       .  A
C1343      F1350   1.358       .  S
C1344      C1345   1.403   1_655  A
C1344      F1349   1.355       .  S
C1346      F1347   1.354       .  S
C1351      C1356   1.399       .  A
C1351      F1358   1.357       .  S
C1352      C1353   1.406   1_455  A
C1353      C1354   1.401       .  A
C1353      F1360   1.358       .  S
C1354      C1355   1.405   1_655  A
C1354      F1359   1.358       .  S
C1356      F1357   1.356       .  S
C1361      C1362   1.405   1_655  A
C1361      C1366   1.398       .  A
C1361      F1368   1.358       .  S
C1363      C1364   1.397       .  A
C1363      F1370   1.358       .  S
C1364      F1369   1.358       .  S
C1365      C1366   1.405   1_455  A
C1366      F1367   1.358       .  S
C1371      C1372   1.403   1_655  A
C1371      C1376   1.397       .  A
C1371      F1378   1.358       .  S
C1373      C1374   1.399       .  A
C1373      F1380   1.358       .  S
C1374      F1379   1.357       .  S
C1375      C1376   1.408   1_455  A
C1376      F1377   1.357       .  S
N1381      C1386   1.354       .  A
N1381      C1385   1.354       .  A
N1381      H1413   1.040       .  S
N1382      C1389   1.351       .  A
N1382      C1390   1.351       .  A
N1383      C1388   1.353       .  A
N1383      C1387   1.352       .  A
N1383      H1414   1.038       .  S
N1384      C1391   1.351       .  A
N1384      C1392   1.351       .  A
C1385      C1393   1.386       .  A
C1385      C1401   1.416       .  A
C1386      C1402   1.416       .  A
C1386      C1394   1.387       .  A
C1387      C1395   1.388       .  A
C1387      C1404   1.416       .  A
C1388      C1403   1.414       .  A
C1388      C1396   1.387       .  A
C1389      C1401   1.413       .  A
C1389      C1397   1.386       .  A
C1390      C1404   1.413       .  A
C1390      C1398   1.387       .  A
C1391      C1399   1.387       .  A
C1391      C1402   1.414       .  A
C1392      C1400   1.386       .  A
C1392      C1403   1.412       .  A
C1393      C1394   1.375       .  A
C1393      H1405   1.082       .  S
C1394      H1406   1.082       .  S
C1395      C1396   1.376       .  A
C1395      H1407   1.082       .  S
C1396      H1408   1.082       .  S
C1397      C1398   1.373       .  A
C1397      H1409   1.082       .  S
C1398      H1410   1.082       .  S
C1399      C1400   1.373       .  A
C1399      H1411   1.082       .  S
C1400      H1412   1.082       .  S
O1415      C1426   1.291       .  A
O1416      C1427   1.293       .  A
O1417      C1428   1.293       .  A
O1417     Zr1975   2.444       .  S
O1418      C1429   1.292       .  A
O1419      C1981   1.291       .  A
O1420      C1980   1.296       .  A
O1421      C1427   1.293       .  A
O1421     Zr1423   2.444       .  S
O1422      C1426   1.293   1_655  A
O1422     Zr1975   2.442       .  S
Zr1423     O1969   2.427       .  S
Zr1423     O1974   2.439       .  S
Zr1423     O1977   2.346       .  S
Zr1423     O1431   2.343       .  S
O1425     Zr1975   2.336       .  S
O1425     Zr1728   2.338   1_545  S
C1426      C1648   1.476       .  S
C1427      C1638   1.475       .  S
C1428      C1608   1.483       .  S
C1428      O1972   1.291   1_545  A
C1429      C1598   1.472       .  S
C1429      O1971   1.291   1_545  A
H1430      O1431   0.966       .  S
H1432      O1433   0.965       .  S
O1433     Zr1729   2.334       .  S
O1434      C1457   1.293       .  A
O1434     Zr1450   2.444   1_556  S
O1435      C1458   1.292       .  A
O1435     Zr1451   2.443       .  S
O1436      C1459   1.295       .  A
O1436     Zr1452   2.449   1_556  S
O1437      C1460   1.291       .  A
O1437     Zr1453   2.438       .  S
O1438      C1461   1.293       .  A
O1438     Zr2005   2.444   1_545  S
O1439      C1462   1.291       .  A
O1439     Zr2004   2.431   1_544  S
O1440      C1463   1.295       .  A
O1440     Zr1454   2.449   1_655  S
O1441      C1464   1.295       .  A
O1442      C1463   1.294       .  A
O1442     Zr1452   2.445   1_556  S
O1443      C1464   1.288       .  A
O1443     Zr1453   2.416   1_556  S
O1444      C1459   1.293       .  A
O1444     Zr1450   2.443   1_656  S
O1445      C1462   1.291       .  A
O1445     Zr1451   2.428   1_554  S
O1446      C1461   1.294       .  A
O1447      C1460   1.293       .  A
O1448      C1457   1.291       .  A
O1448     Zr1454   2.434       .  S
O1449      C1458   1.292       .  A
O1449     Zr2006   2.444       .  S
Zr1450     O1456   2.339   1_454  S
Zr1451     O1466   2.345       .  S
Zr1452     O1991   2.441       .  S
Zr1452     O1701   2.340       .  S
Zr1452     O1456   2.337   1_554  S
Zr1452     O2018   2.352   1_554  S
Zr1453     O1990   2.436       .  S
Zr1453     O1709   2.337       .  S
Zr1453     O2007   2.347   1_554  S
Zr1453     O1468   2.341   1_554  S
Zr1454     O2001   2.450       .  S
Zr1454     O1456   2.342   1_455  S
Zr1454     O2018   2.339   1_455  S
O1455     Zr2005   2.339   1_545  S
C1457      C1631   1.470       .  S
C1458      C1621   1.473       .  S
C1459      C1538   1.488       .  S
C1460      C1558   1.486       .  S
C1461      C1568   1.483   1_556  S
C1462      C1548   1.468       .  S
C1463      C1581   1.487       .  S
C1464      C1591   1.467       .  S
H1465      O1466   0.968       .  S
O1466     Zr2004   2.349   1_545  S
O1466     Zr2006   2.342       .  S
H1467      O1468   0.966       .  S
N1469      C1474   1.350       .  A
N1469      C1473   1.351       .  A
N1469      H1501   1.042   1_545  S
N1470      C1477   1.350   1_545  A
N1470      C1478   1.349   1_545  A
N1471      C1476   1.351       .  A
N1471      C1475   1.351       .  A
N1471      H1502   1.042   1_545  S
N1472      C1479   1.349   1_545  A
N1472      C1480   1.350   1_545  A
C1473      C1481   1.387       .  A
C1473      C1489   1.411       .  A
C1474      C1490   1.412       .  A
C1474      C1482   1.387       .  A
C1475      C1483   1.388       .  A
C1475      C1492   1.415       .  A
C1476      C1491   1.412       .  A
C1476      C1484   1.386       .  A
C1477      C1489   1.411   1_565  A
C1477      C1485   1.385       .  A
C1478      C1492   1.412   1_565  A
C1478      C1486   1.387       .  A
C1479      C1487   1.387       .  A
C1479      C1490   1.412   1_565  A
C1480      C1488   1.386       .  A
C1480      C1491   1.411   1_565  A
C1481      C1482   1.379       .  A
C1481      H1493   1.082       .  S
C1482      H1494   1.082       .  S
C1483      C1484   1.378       .  A
C1483      H1495   1.082       .  S
C1484      H1496   1.082       .  S
C1485      C1486   1.376       .  A
C1485      H1497   1.082       .  S
C1486      H1498   1.082       .  S
C1487      C1488   1.376       .  A
C1487      H1499   1.082       .  S
C1488      H1500   1.082       .  S
C1489      C1578   1.490       .  S
C1490      C1588   1.487       .  S
C1491      C1601   1.486       .  S
C1492      C1611   1.494       .  S
N1503      C1508   1.352   1_554  A
N1503      C1507   1.353   1_554  A
N1503      H1535   1.042       .  S
N1504      C1511   1.351       .  A
N1504      C1512   1.349       .  A
N1505      C1510   1.352   1_554  A
N1505      C1509   1.350   1_554  A
N1505      H1536   1.042       .  S
N1506      C1513   1.352       .  A
N1506      C1514   1.353       .  A
C1507      C1515   1.387       .  A
C1507      C1523   1.418       .  A
C1508      C1524   1.417   1_556  A
C1508      C1516   1.388       .  A
C1509      C1517   1.387       .  A
C1509      C1526   1.412   1_556  A
C1510      C1525   1.413   1_556  A
C1510      C1518   1.387       .  A
C1511      C1523   1.412   1_554  A
C1511      C1519   1.386       .  A
C1512      C1526   1.409       .  A
C1512      C1520   1.385       .  A
C1513      C1521   1.388       .  A
C1513      C1524   1.417       .  A
C1514      C1522   1.384       .  A
C1514      C1525   1.413       .  A
C1515      C1516   1.380       .  A
C1515      H1527   1.082       .  S
C1516      H1528   1.082       .  S
C1517      C1518   1.378       .  A
C1517      H1529   1.082       .  S
C1518      H1530   1.082       .  S
C1519      C1520   1.374       .  A
C1519      H1531   1.082       .  S
C1520      H1532   1.082       .  S
C1521      C1522   1.376       .  A
C1521      H1533   1.082       .  S
C1522      H1534   1.082       .  S
C1523      C1541   1.498       .  S
C1524      C1561   1.497   1_554  S
C1525      C1571   1.495       .  S
C1526      C1551   1.485       .  S
C1537      C1542   1.396       .  A
C1537      F1544   1.356       .  S
C1538      C1539   1.410       .  A
C1539      C1540   1.403       .  A
C1539      F1546   1.358       .  S
C1540      C1541   1.411       .  A
C1540      F1545   1.358       .  S
C1542      F1543   1.358       .  S
C1547      C1548   1.404   1_556  A
C1547      C1552   1.394       .  A
C1547      F1554   1.358       .  S
C1549      C1550   1.398       .  A
C1549      F1556   1.358       .  S
C1550      F1555   1.358       .  S
C1551      C1552   1.406   1_554  A
C1552      F1553   1.358       .  S
C1557      C1558   1.408   1_556  A
C1557      C1562   1.398       .  A
C1557      F1564   1.355       .  S
C1559      C1560   1.401       .  A
C1559      F1566   1.355       .  S
C1560      F1565   1.358       .  S
C1561      C1562   1.407       .  A
C1562      F1563   1.358       .  S
C1567      C1568   1.407   1_556  A
C1567      C1572   1.401       .  A
C1567      F1574   1.357       .  S
C1569      C1570   1.400       .  A
C1569      F1576   1.358       .  S
C1570      F1575   1.358       .  S
C1571      C1572   1.406   1_554  A
C1572      F1573   1.358       .  S
C1577      C2130   1.408       .  A
C1577      C1582   1.401       .  A
C1577      F1584   1.358       .  S
C1578      C2129   1.408   1_545  A
C1578      C1579   1.405       .  A
C1579      C1580   1.396       .  A
C1579      F1586   1.358       .  S
C1580      C2133   1.407   1_545  A
C1580      F1585   1.357       .  S
C1581      C2132   1.408       .  A
C1581      C1582   1.409       .  A
C1582      F1583   1.358       .  S
C1587      C1588   1.406       .  A
C1587      C1592   1.399       .  A
C1587      F1594   1.358       .  S
C1588      C2141   1.406   1_545  A
C1589      C2140   1.407       .  A
C1589      C1590   1.399       .  A
C1589      F1596   1.358       .  S
C1590      C1591   1.406       .  A
C1590      F1595   1.359       .  S
C1591      C2144   1.402       .  A
C1592      C2143   1.407       .  A
C1592      F1593   1.358       .  S
C1597      C1598   1.406       .  A
C1597      C1602   1.398       .  A
C1597      F1604   1.358       .  S
C1598      C2151   1.405   1_545  A
C1599      C2150   1.404       .  A
C1599      C1600   1.399       .  A
C1599      F1606   1.355       .  S
C1600      C2153   1.406       .  A
C1600      F1605   1.358       .  S
C1601      C2152   1.406   1_545  A
C1601      C1602   1.406       .  A
C1602      F1603   1.358       .  S
C1607      C2160   1.404       .  A
C1607      C1612   1.400       .  A
C1607      F1614   1.355       .  S
C1608      C2159   1.408   1_545  A
C1608      C1609   1.406       .  A
C1609      C1610   1.396       .  A
C1609      F1616   1.354       .  S
C1610      C1611   1.408       .  A
C1610      F1615   1.358       .  S
C1611      C2164   1.408   1_545  A
C1612      C2163   1.406       .  A
C1612      F1613   1.357       .  S
C1617      C1622   1.398       .  A
C1617      F1624   1.358       .  S
C1618      C1619   1.405       .  A
C1619      C1620   1.401       .  A
C1619      F1626   1.358       .  S
C1620      C1621   1.405       .  A
C1620      F1625   1.357       .  S
C1622      F1623   1.357       .  S
C1627      C1632   1.397       .  A
C1627      F1634   1.358       .  S
C1628      C1629   1.406       .  A
C1629      C1630   1.399       .  A
C1629      F1636   1.358       .  S
C1630      C1631   1.405   1_655  A
C1630      F1635   1.358       .  S
C1632      F1633   1.354       .  S
C1637      C1638   1.407       .  A
C1637      C1642   1.400       .  A
C1637      F1644   1.358       .  S
C1639      C1640   1.399       .  A
C1639      F1646   1.358       .  S
C1640      F1645   1.358       .  S
C1641      C1642   1.406       .  A
C1642      F1643   1.358       .  S
C1647      C1648   1.403   1_655  A
C1647      C1652   1.395       .  A
C1647      F1654   1.353       .  S
C1649      C1650   1.399       .  A
C1649      F1656   1.358       .  S
C1650      F1655   1.358       .  S
C1651      C1652   1.405   1_455  A
C1652      F1653   1.358       .  S
N1657      C1662   1.350       .  A
N1657      C1661   1.352       .  A
N1657      H1689   1.039       .  S
N1658      C1665   1.352       .  A
N1658      C1666   1.349       .  A
N1659      C1664   1.354       .  A
N1659      C1663   1.352       .  A
N1659      H1690   1.039       .  S
N1660      C1667   1.350       .  A
N1660      C1668   1.351       .  A
C1661      C1669   1.387       .  A
C1661      C1677   1.412       .  A
C1662      C1678   1.411       .  A
C1662      C1670   1.387       .  A
C1663      C1671   1.389       .  A
C1663      C1680   1.417       .  A
C1664      C1679   1.414       .  A
C1664      C1672   1.386       .  A
C1665      C1677   1.413       .  A
C1665      C1673   1.386       .  A
C1666      C1680   1.412       .  A
C1666      C1674   1.387       .  A
C1667      C1675   1.386       .  A
C1667      C1678   1.411       .  A
C1668      C1676   1.385       .  A
C1668      C1679   1.410       .  A
C1669      C1670   1.374       .  A
C1669      H1681   1.082       .  S
C1670      H1682   1.082       .  S
C1671      C1672   1.377       .  A
C1671      H1683   1.082       .  S
C1672      H1684   1.082       .  S
C1673      C1674   1.372       .  A
C1673      H1685   1.082       .  S
C1674      H1686   1.082       .  S
C1675      C1676   1.371       .  A
C1675      H1687   1.082       .  S
C1676      H1688   1.082       .  S
O1691      C1702   1.289       .  A
O1691     Zr2003   2.424       .  S
O1692      C1703   1.293       .  A
O1692     Zr2002   2.444   1_454  S
O1693      C1704   1.291       .  A
O1694      C1705   1.292       .  A
O1695     Zr2005   2.436   1_554  S
O1696     Zr2004   2.434   1_554  S
O1697      C1703   1.292       .  A
O1697     Zr1699   2.435   1_455  S
O1698      C1702   1.294   1_655  A
Zr1699     O1707   2.338       .  S
O1700     Zr2005   2.339   1_554  S
O1701     Zr2003   2.347   1_655  S
C1702      C1924   1.465       .  S
C1703      C1914   1.474       .  S
C1704      C1884   1.480       .  S
C1705      C1874   1.465       .  S
H1706      O1707   0.966       .  S
O1707     Zr2002   2.339   1_554  S
O1707     Zr2004   2.341   1_554  S
H1708      O1709   0.966       .  S
O1710      C1733   1.292       .  A
O1710     Zr1726   2.438       .  S
O1711      C1734   1.296       .  A
O1711     Zr1727   2.463   1_455  S
O1712      C1735   1.291       .  A
O1712     Zr1728   2.435       .  S
O1713      C1736   1.290       .  A
O1713     Zr1729   2.432   1_565  S
O1714      C1737   1.294       .  A
O1715      C1738   1.294       .  A
O1716      C1739   1.292       .  A
O1716     Zr1730   2.435   1_565  S
O1717      C1740   1.292       .  A
O1718      C1739   1.292       .  A
O1718     Zr1728   2.437       .  S
O1719      C1740   1.291       .  A
O1719     Zr1729   2.433       .  S
O1720      C1735   1.294       .  A
O1720     Zr1726   2.449   1_655  S
O1721      C1738   1.295       .  A
O1721     Zr1727   2.450       .  S
O1722      C1737   1.293       .  A
O1723      C1736   1.291       .  A
O1724      C1733   1.292   1_655  A
O1724     Zr1730   2.441   1_565  S
O1725      C1734   1.291       .  A
Zr1726     O1968   2.434       .  S
Zr1726     O1983   2.345   1_455  S
Zr1726     O1732   2.339   1_455  S
Zr1727     O1967   2.438       .  S
Zr1727     O1977   2.352       .  S
Zr1727     O1742   2.337       .  S
Zr1728     O1972   2.431       .  S
Zr1728     O1983   2.341       .  S
Zr1728     O1732   2.339       .  S
Zr1729     O1971   2.433   1_545  S
Zr1729     O1976   2.337   1_545  S
Zr1729     O1744   2.344   1_545  S
Zr1730     O1732   2.338   1_545  S
C1733      C1907   1.474       .  S
C1734      C1897   1.482       .  S
C1735      C1814   1.474       .  S
C1736      C1834   1.462       .  S
C1737      C1844   1.480       .  S
C1738      C1824   1.483       .  S
C1739      C1857   1.479       .  S
C1740      C1867   1.472       .  S
H1741      O1742   0.968       .  S
H1743      O1744   0.966       .  S
N1745      C1750   1.349       .  A
N1745      C1749   1.352       .  A
N1745      H1777   1.040       .  S
N1746      C1753   1.351       .  A
N1746      C1754   1.350       .  A
N1747      C1752   1.351       .  A
N1747      C1751   1.352       .  A
N1747      H1778   1.040       .  S
N1748      C1755   1.352       .  A
N1748      C1756   1.352       .  A
C1749      C1757   1.388       .  A
C1749      C1765   1.414       .  A
C1750      C1766   1.411       .  A
C1750      C1758   1.387       .  A
C1751      C1759   1.388       .  A
C1751      C1768   1.414       .  A
C1752      C1767   1.412       .  A
C1752      C1760   1.387       .  A
C1753      C1765   1.412       .  A
C1753      C1761   1.386       .  A
C1754      C1768   1.412       .  A
C1754      C1762   1.386       .  A
C1755      C1763   1.387       .  A
C1755      C1766   1.414       .  A
C1756      C1764   1.385       .  A
C1756      C1767   1.412       .  A
C1757      C1758   1.378       .  A
C1757      H1769   1.082       .  S
C1758      H1770   1.083       .  S
C1759      C1760   1.377       .  A
C1759      H1771   1.082       .  S
C1760      H1772   1.083       .  S
C1761      C1762   1.373       .  A
C1761      H1773   1.082       .  S
C1762      H1774   1.082       .  S
C1763      C1764   1.374       .  A
C1763      H1775   1.082       .  S
C1764      H1776   1.082       .  S
C1765      C1854   1.492       .  S
C1766      C1864   1.484       .  S
C1767      C1877   1.482       .  S
C1768      C1887   1.490       .  S
N1779      C1784   1.351       .  A
N1779      C1783   1.352       .  A
N1779      H1811   1.039       .  S
N1780      C1787   1.353       .  A
N1780      C1788   1.352       .  A
N1781      C1786   1.354       .  A
N1781      C1785   1.354       .  A
N1781      H1812   1.039       .  S
N1782      C1789   1.350       .  A
N1782      C1790   1.352       .  A
C1783      C1791   1.387       .  A
C1783      C1799   1.413       .  A
C1784      C1800   1.412       .  A
C1784      C1792   1.388       .  A
C1785      C1793   1.388       .  A
C1785      C1802   1.420       .  A
C1786      C1801   1.417       .  A
C1786      C1794   1.386       .  A
C1787      C1799   1.413       .  A
C1787      C1795   1.385       .  A
C1788      C1802   1.417       .  A
C1788      C1796   1.387       .  A
C1789      C1797   1.386       .  A
C1789      C1800   1.410       .  A
C1790      C1798   1.387       .  A
C1790      C1801   1.414       .  A
C1791      C1792   1.376       .  A
C1791      H1803   1.082       .  S
C1792      H1804   1.083       .  S
C1793      C1794   1.377       .  A
C1793      H1805   1.082       .  S
C1794      H1806   1.082       .  S
C1795      C1796   1.373       .  A
C1795      H1807   1.082       .  S
C1796      H1808   1.082       .  S
C1797      C1798   1.372       .  A
C1797      H1809   1.083       .  S
C1798      H1810   1.082       .  S
C1799      C1817   1.488       .  S
C1800      C1837   1.477       .  S
C1801      C1847   1.492       .  S
C1802      C1827   1.497       .  S
C1813      C2090   1.410       .  A
C1813      C1818   1.400       .  A
C1813      F1820   1.358       .  S
C1814      C2089   1.406       .  A
C1814      C1815   1.404       .  A
C1815      C1816   1.399       .  A
C1815      F1822   1.358       .  S
C1816      C1817   1.406       .  A
C1816      F1821   1.357       .  S
C1817      C2094   1.405       .  A
C1818      C2093   1.407       .  A
C1818      F1819   1.358       .  S
C1823      C1824   1.408       .  A
C1823      C1828   1.402       .  A
C1823      F1830   1.358       .  S
C1824      C2101   1.407       .  A
C1825      C2100   1.406       .  A
C1825      C1826   1.400       .  A
C1825      F1832   1.358       .  S
C1826      C2103   1.405       .  A
C1826      F1831   1.358       .  S
C1827      C2102   1.407       .  A
C1827      C1828   1.409       .  A
C1828      F1829   1.358       .  S
C1833      C1834   1.401       .  A
C1833      C1838   1.395       .  A
C1833      F1840   1.354       .  S
C1834      C2111   1.403       .  A
C1835      C2110   1.409   1_554  A
C1835      C1836   1.398       .  A
C1835      F1842   1.356       .  S
C1836      C2113   1.409   1_554  A
C1836      F1841   1.358       .  S
C1837      C2112   1.403       .  A
C1837      C1838   1.402       .  A
C1838      F1839   1.358       .  S
C1843      C1844   1.406       .  A
C1843      C1848   1.398       .  A
C1843      F1850   1.356       .  S
C1844      C2121   1.407       .  A
C1845      C2120   1.405       .  A
C1845      C1846   1.401       .  A
C1845      F1852   1.358       .  S
C1846      C2123   1.406       .  A
C1846      F1851   1.357       .  S
C1847      C2122   1.406       .  A
C1847      C1848   1.406       .  A
C1848      F1849   1.358       .  S
C1853      C1858   1.401       .  A
C1853      F1860   1.358       .  S
C1854      C1855   1.406       .  A
C1855      C1856   1.398       .  A
C1855      F1862   1.358       .  S
C1856      F1861   1.354       .  S
C1857      C1858   1.407       .  A
C1858      F1859   1.358       .  S
C1863      C1864   1.403       .  A
C1863      C1868   1.393       .  A
C1863      F1870   1.357       .  S
C1865      C1866   1.397       .  A
C1865      F1872   1.358       .  S
C1866      C1867   1.406   1_565  A
C1866      F1871   1.358       .  S
C1868      F1869   1.358       .  S
C1873      C1874   1.403       .  A
C1873      C1878   1.398       .  A
C1873      F1880   1.358       .  S
C1875      C1876   1.396       .  A
C1875      F1882   1.356       .  S
C1876      F1881   1.358       .  S
C1877      C1878   1.404       .  A
C1878      F1879   1.357       .  S
C1883      C1888   1.401       .  A
C1883      F1890   1.358       .  S
C1884      C1885   1.406       .  A
C1885      C1886   1.397       .  A
C1885      F1892   1.354       .  S
C1886      C1887   1.406       .  A
C1886      F1891   1.358       .  S
C1888      F1889   1.358       .  S
C1893      C1898   1.401       .  A
C1893      F1900   1.358       .  S
C1894      C1895   1.405   1_455  A
C1895      C1896   1.400       .  A
C1895      F1902   1.358       .  S
C1896      C1897   1.405   1_655  A
C1896      F1901   1.353       .  S
C1898      F1899   1.356       .  S
C1903      C1908   1.393       .  A
C1903      F1910   1.358       .  S
C1904      C1905   1.407   1_455  A
C1905      C1906   1.399       .  A
C1905      F1912   1.358       .  S
C1906      C1907   1.404   1_655  A
C1906      F1911   1.358       .  S
C1908      F1909   1.353       .  S
C1913      C1914   1.405   1_655  A
C1913      C1918   1.396       .  A
C1913      F1920   1.358       .  S
C1915      C1916   1.400       .  A
C1915      F1922   1.358       .  S
C1916      F1921   1.358       .  S
C1917      C1918   1.404   1_455  A
C1918      F1919   1.358       .  S
C1923      C1924   1.401   1_655  A
C1923      C1928   1.394       .  A
C1923      F1930   1.353       .  S
C1925      C1926   1.398       .  A
C1925      F1932   1.358       .  S
C1926      F1931   1.358       .  S
C1927      C1928   1.401   1_455  A
C1928      F1929   1.358       .  S
N1933      C1938   1.350       .  A
N1933      C1937   1.351       .  A
N1933      H1965   1.040       .  S
N1934      C1941   1.351       .  A
N1934      C1942   1.350       .  A
N1935      C1940   1.354       .  A
N1935      C1939   1.352       .  A
N1935      H1966   1.040       .  S
N1936      C1943   1.351       .  A
N1936      C1944   1.353       .  A
C1937      C1945   1.386       .  A
C1937      C1953   1.410       .  A
C1938      C1954   1.412       .  A
C1938      C1946   1.388       .  A
C1939      C1947   1.387       .  A
C1939      C1956   1.415       .  A
C1940      C1955   1.416       .  A
C1940      C1948   1.387       .  A
C1941      C1953   1.411       .  A
C1941      C1949   1.385       .  A
C1942      C1956   1.412       .  A
C1942      C1950   1.387       .  A
C1943      C1951   1.386       .  A
C1943      C1954   1.413       .  A
C1944      C1952   1.387       .  A
C1944      C1955   1.416       .  A
C1945      C1946   1.375       .  A
C1945      H1957   1.082       .  S
C1946      H1958   1.082       .  S
C1947      C1948   1.377       .  A
C1947      H1959   1.082       .  S
C1948      H1960   1.082       .  S
C1949      C1950   1.372       .  A
C1949      H1961   1.082       .  S
C1950      H1962   1.082       .  S
C1951      C1952   1.373       .  A
C1951      H1963   1.082       .  S
C1952      H1964   1.082       .  S
O1967      C1978   1.293       .  A
O1968      C1979   1.291       .  A
O1969      C1980   1.289       .  A
O1970      C1981   1.292       .  A
O1973      C1979   1.293       .  A
O1973     Zr1975   2.439   1_465  S
O1974      C1978   1.293       .  A
Zr1975     O1983   2.340   1_545  S
C1978      C2200   1.475   1_655  S
C1979      C2190   1.470       .  S
C1980      C2160   1.479       .  S
C1981      C2150   1.473       .  S
H1982      O1983   0.966       .  S
H1984      O1985   0.966       .  S
O1986      C2009   1.291       .  A
O1986     Zr2002   2.431       .  S
O1987      C2010   1.293       .  A
O1987     Zr2003   2.444   1_556  S
O1988      C2011   1.290   1_554  A
O1988     Zr2004   2.430   1_554  S
O1989      C2012   1.292       .  A
O1989     Zr2005   2.437       .  S
O1990      C2013   1.291       .  A
O1991      C2014   1.293       .  A
O1992      C2015   1.293       .  A
O1992     Zr2006   2.439   1_565  S
O1993      C2016   1.294       .  A
O1994      C2015   1.293       .  A
O1994     Zr2004   2.442       .  S
O1995      C2016   1.291       .  A
O1995     Zr2005   2.431   1_545  S
O1996      C2011   1.295       .  A
O1996     Zr2002   2.453       .  S
O1997      C2014   1.294       .  A
O1997     Zr2003   2.448   1_655  S
O1998      C2013   1.293   1_556  A
O1999      C2012   1.294       .  A
O2000      C2009   1.292       .  A
O2000     Zr2006   2.439   1_565  S
O2001      C2010   1.294       .  A
Zr2002     O2008   2.339       .  S
Zr2003     O2018   2.340   1_454  S
Zr2004     O2008   2.336       .  S
Zr2005     O2020   2.344       .  S
Zr2006     O2008   2.341   1_545  S
C2009      C2183   1.469       .  S
C2010      C2173   1.489       .  S
C2011      C2090   1.481   1_556  S
C2012      C2110   1.487       .  S
C2013      C2120   1.472       .  S
C2014      C2100   1.476       .  S
C2015      C2133   1.482       .  S
C2016      C2143   1.476       .  S
H2017      O2018   0.968       .  S
H2019      O2020   0.966       .  S
N2021      C2026   1.350       .  A
N2021      C2025   1.353       .  A
N2021      H2053   1.040       .  S
N2022      C2029   1.353       .  A
N2022      C2030   1.351       .  A
N2023      C2028   1.353       .  A
N2023      C2027   1.353       .  A
N2023      H2054   1.040       .  S
N2024      C2031   1.352       .  A
N2024      C2032   1.353       .  A
C2025      C2033   1.387       .  A
C2025      C2041   1.414       .  A
C2026      C2042   1.412       .  A
C2026      C2034   1.387       .  A
C2027      C2035   1.387       .  A
C2027      C2044   1.415       .  A
C2028      C2043   1.415       .  A
C2028      C2036   1.387       .  A
C2029      C2041   1.415       .  A
C2029      C2037   1.386       .  A
C2030      C2044   1.412       .  A
C2030      C2038   1.385       .  A
C2031      C2039   1.387       .  A
C2031      C2042   1.416       .  A
C2032      C2040   1.386       .  A
C2032      C2043   1.415       .  A
C2033      C2034   1.376       .  A
C2033      H2045   1.082       .  S
C2034      H2046   1.083       .  S
C2035      C2036   1.376       .  A
C2035      H2047   1.082       .  S
C2036      H2048   1.082       .  S
C2037      C2038   1.373       .  A
C2037      H2049   1.082       .  S
C2038      H2050   1.082       .  S
C2039      C2040   1.374       .  A
C2039      H2051   1.082       .  S
C2040      H2052   1.082       .  S
C2041      C2130   1.497       .  S
C2042      C2140   1.485       .  S
C2043      C2153   1.491       .  S
C2044      C2163   1.490       .  S
N2055      C2060   1.353   1_554  A
N2055      C2059   1.352   1_554  A
N2055      H2087   1.042       .  S
N2056      C2063   1.351       .  A
N2056      C2064   1.351       .  A
N2057      C2062   1.352       .  A
N2057      C2061   1.352   1_554  A
N2057      H2088   1.040       .  S
N2058      C2065   1.351       .  A
N2058      C2066   1.351       .  A
C2059      C2067   1.386       .  A
C2059      C2075   1.414   1_556  A
C2060      C2076   1.418   1_556  A
C2060      C2068   1.389       .  A
C2061      C2069   1.388       .  A
C2061      C2078   1.415   1_556  A
C2062      C2077   1.412       .  A
C2062      C2070   1.387   1_554  A
C2063      C2075   1.414       .  A
C2063      C2071   1.387       .  A
C2064      C2078   1.412       .  A
C2064      C2072   1.385       .  A
C2065      C2073   1.388       .  A
C2065      C2076   1.416       .  A
C2066      C2074   1.384       .  A
C2066      C2077   1.411       .  A
C2067      C2068   1.378       .  A
C2067      H2079   1.082       .  S
C2068      H2080   1.082       .  S
C2069      C2070   1.377       .  A
C2069      H2081   1.082       .  S
C2070      H2082   1.082       .  S
C2071      C2072   1.375       .  A
C2071      H2083   1.082       .  S
C2072      H2084   1.082       .  S
C2073      C2074   1.376       .  A
C2073      H2085   1.082       .  S
C2074      H2086   1.082       .  S
C2075      C2093   1.493       .  S
C2076      C2113   1.501   1_554  S
C2077      C2123   1.485       .  S
C2078      C2103   1.489       .  S
C2089      C2094   1.399       .  A
C2089      F2096   1.356       .  S
C2090      C2091   1.406   1_554  A
C2091      C2092   1.398       .  A
C2091      F2098   1.358       .  S
C2092      C2093   1.407   1_556  A
C2092      F2097   1.358       .  S
C2094      F2095   1.358       .  S
C2099      C2100   1.406   1_556  A
C2099      C2104   1.400       .  A
C2099      F2106   1.358       .  S
C2101      C2102   1.399       .  A
C2101      F2108   1.358       .  S
C2102      F2107   1.358       .  S
C2103      C2104   1.406   1_554  A
C2104      F2105   1.358       .  S
C2109      C2110   1.408       .  A
C2109      C2114   1.399       .  A
C2109      F2116   1.355       .  S
C2111      C2112   1.397       .  A
C2111      F2118   1.356       .  S
C2112      F2117   1.358       .  S
C2113      C2114   1.410       .  A
C2114      F2115   1.358       .  S
C2119      C2120   1.403   1_556  A
C2119      C2124   1.398       .  A
C2119      F2126   1.355       .  S
C2121      C2122   1.402       .  A
C2121      F2128   1.358       .  S
C2122      F2127   1.358       .  S
C2123      C2124   1.404   1_554  A
C2124      F2125   1.358       .  S
C2129      C2134   1.402       .  A
C2129      F2136   1.358       .  S
C2130      C2131   1.406       .  A
C2131      C2132   1.399       .  A
C2131      F2138   1.358       .  S
C2132      F2137   1.353       .  S
C2133      C2134   1.409       .  A
C2134      F2135   1.358       .  S
C2139      C2140   1.404       .  A
C2139      C2144   1.395       .  A
C2139      F2146   1.357       .  S
C2141      C2142   1.397       .  A
C2141      F2148   1.358       .  S
C2142      C2143   1.407   1_565  A
C2142      F2147   1.358       .  S
C2144      F2145   1.358       .  S
C2149      C2150   1.403       .  A
C2149      C2154   1.400       .  A
C2149      F2156   1.358       .  S
C2151      C2152   1.397       .  A
C2151      F2158   1.356       .  S
C2152      F2157   1.358       .  S
C2153      C2154   1.407       .  A
C2154      F2155   1.357       .  S
C2159      C2164   1.397       .  A
C2159      F2166   1.356       .  S
C2160      C2161   1.406       .  A
C2161      C2162   1.398       .  A
C2161      F2168   1.353       .  S
C2162      C2163   1.405       .  A
C2162      F2167   1.358       .  S
C2164      F2165   1.358       .  S
C2169      C2174   1.401       .  A
C2169      F2176   1.358       .  S
C2170      C2171   1.408   1_455  A
C2171      C2172   1.399       .  A
C2171      F2178   1.358       .  S
C2172      C2173   1.406   1_655  A
C2172      F2177   1.353       .  S
C2174      F2175   1.354       .  S
C2179      C2184   1.395       .  A
C2179      F2186   1.358       .  S
C2180      C2181   1.408       .  A
C2181      C2182   1.400       .  A
C2181      F2188   1.358       .  S
C2182      C2183   1.405       .  A
C2182      F2187   1.358       .  S
C2184      F2185   1.355       .  S
C2189      C2190   1.403   1_655  A
C2189      C2194   1.395       .  A
C2189      F2196   1.358       .  S
C2191      C2192   1.401       .  A
C2191      F2198   1.358       .  S
C2192      F2197   1.358       .  S
C2193      C2194   1.405   1_455  A
C2194      F2195   1.357       .  S
C2199      C2200   1.404   1_655  A
C2199      C2204   1.395       .  A
C2199      F2206   1.353       .  S
C2201      C2202   1.399       .  A
C2201      F2208   1.358       .  S
C2202      F2207   1.358       .  S
C2203      C2204   1.404   1_455  A
C2204      F2205   1.358       .  S
