geometry optimzed in LAMMPS
_audit_creation_date              2020-11-30 
_audit_creation_method            'lammps2cif' 
_symmetry_space_group_name_H-M    'P1' 
_symmetry_Int_Tables_number       1 
_symmetry_cell_setting            triclinic 
loop_ 
_symmetry_equiv_pos_as_xyz 
  x,y,z 
_cell_length_a                    41.77126526 
_cell_length_b                    41.531117101570096 
_cell_length_c                    26.307181099544394 
_cell_angle_alpha                 91.09750097541502 
_cell_angle_beta                  87.8451885783685 
_cell_angle_gamma                 119.97750519019269 
loop_ 
_atom_site_label 
_atom_site_type_symbol 
_atom_site_fract_x 
_atom_site_fract_y 
_atom_site_fract_z 
_atom_site_charge 
C1          C  0.40579487  0.31194969  0.99872488    -0.02200
C2          C  0.07149046  0.39038818  0.50775686    -0.02200
C3          C  0.15763062  0.05797859  0.50642990    -0.02200
C4          C  0.07050961  0.13718437  0.99906534    -0.02200
C5          C  0.40430715  0.05988561  0.49341510    -0.02200
C6          C  0.31764029  0.39130071  0.49509477    -0.02200
O7          O  0.13823725  0.23577623  0.20749157    -0.85000
O8          O  0.19967177  0.30223140  0.18288549    -0.82100
C9          C  0.22046094  0.33676871  0.17805134     0.98400
O10         O  0.21992471  0.35890276  0.21135947    -0.82100
O11         O  0.15518820  0.35620764  0.18803782    -0.84700
C12         C  0.12110717  0.34364560  0.18306434     1.03000
O13         O  0.09785666  0.31847372  0.21276074    -0.77500
O14         O  0.10276165  0.25713321  0.18293722    -0.77700
C15         C  0.11607795  0.23596729  0.17623193     1.02900
O16         O  0.15231635  0.25291528  0.31274109    -0.85000
O17         O  0.21837573  0.31636927  0.28917324    -0.82100
C18         C  0.21939350  0.34016687  0.32104126     0.98500
O19         O  0.19779317  0.35287405  0.31726218    -0.82100
O20         O  0.13645004  0.35728224  0.29432600    -0.84700
C21         C  0.11224000  0.33375721  0.32486101     1.04700
O22         O  0.09898660  0.29944078  0.31738909    -0.77500
O23         O  0.09593847  0.23459970  0.28840694    -0.77700
C24         C  0.11782108  0.23203001  0.31800489     1.02900
Cr25       Cr  0.17552601  0.27878562  0.24828843     1.93700
Cr26       Cr  0.17553252  0.35265851  0.25266247     1.93200
Cr27       Cr  0.10234889  0.27910428  0.25028619     1.39100
O28         O  0.15110152  0.30348475  0.25078325    -1.22800
O29         O  0.32054782  0.19281676  0.18275761    -0.85000
O30         O  0.25499260  0.13063365  0.21150202    -0.82100
C31         C  0.25365110  0.10571096  0.18161973     0.98400
O32         O  0.27573915  0.09374074  0.18628931    -0.82100
O33         O  0.33833844  0.09227190  0.20918062    -0.84700
C34         C  0.36060508  0.11482463  0.17601117     1.03000
O35         O  0.37386546  0.14927461  0.18165337    -0.77500
O36         O  0.37721830  0.21490791  0.20802401    -0.77700
C37         C  0.35483820  0.21452978  0.17669557     1.02900
O38         O  0.33536915  0.21459722  0.28833544    -0.85000
O39         O  0.27463796  0.14927669  0.31635095    -0.82100
C40         C  0.25426911  0.11489015  0.32353511     0.98500
O41         O  0.25551588  0.09169569  0.29270718    -0.82100
O42         O  0.32156082  0.09715944  0.31537583    -0.84700
C43         C  0.35575498  0.11019334  0.31959944     1.02900
O44         O  0.37839808  0.13422655  0.28797521    -0.77500
O45         O  0.37387073  0.19670294  0.31275135    -0.77700
C46         C  0.35968199  0.21719595  0.31816253     1.02900
Cr47       Cr  0.29818148  0.17018424  0.24959010     1.93700
Cr48       Cr  0.29957087  0.09732807  0.25084849     1.93200
Cr49       Cr  0.37229769  0.17176574  0.24775984     1.39100
O50         O  0.32333757  0.14645358  0.24971156    -1.22800
C51         C  0.28322764  0.37229083  0.13679884    -0.21000
C52         C  0.24491571  0.35110968  0.13267886    -0.09000
C53         C  0.22969154  0.34232654  0.08453802     0.29800
C54         C  0.25229983  0.35450376  0.04073822    -0.21000
C55         C  0.29115640  0.37709061  0.04350284    -0.09000
C56         C  0.30620574  0.38457883  0.09302813     0.29800
F57         F  0.34335139  0.40456250  0.09877665    -0.19600
H58         H  0.29538875  0.37878117  0.17389917     0.18200
H59         H  0.23859402  0.34535127  0.00507215     0.18200
F60         F  0.19256221  0.32243022  0.07985044    -0.19500
C61         C  0.24829848  0.38220227  0.39479315    -0.21000
C62         C  0.24634661  0.35406680  0.36247549    -0.09000
C63         C  0.26952492  0.33933619  0.37126788     0.29800
C64         C  0.29293962  0.35156760  0.41267869    -0.21000
C65         C  0.29436955  0.37925077  0.44631798    -0.09000
C66         C  0.27182230  0.39475241  0.43567927     0.29800
F67         F  0.27056733  0.42052504  0.46687498    -0.19600
H68         H  0.23090986  0.39424496  0.38917056     0.18200
H69         H  0.30893041  0.33813277  0.41861626     0.18200
F70         F  0.26907209  0.31242942  0.34067686    -0.19500
C71         C  0.35600073  0.05564659  0.43332021    -0.21000
C72         C  0.39387608  0.07274995  0.44457742    -0.09000
C73         C  0.41929639  0.10230035  0.41230755     0.29800
C74         C  0.40679387  0.11367513  0.37129608    -0.21000
C75         C  0.36899032  0.09663395  0.36132861    -0.09000
C76         C  0.34373740  0.06713018  0.39271142     0.29800
F77         F  0.30683693  0.04944097  0.38496526    -0.19600
H78         H  0.33533550  0.03368044  0.45735869     0.18200
H79         H  0.42684971  0.13667738  0.34800668     0.18200
F80         F  0.45601622  0.12188394  0.42078870    -0.19500
C81         C  0.38754908  0.07897163  0.13480926    -0.21000
C82         C  0.37120235  0.10095547  0.13039152    -0.09000
C83         C  0.36555825  0.11030894  0.08200720     0.29800
C84         C  0.37562534  0.09737610  0.03835499    -0.21000
C85         C  0.39149593  0.07426726  0.04157577    -0.09000
C86         C  0.39840085  0.06652784  0.09136274     0.29800
F87         F  0.41540584  0.04633181  0.09771936    -0.19600
H88         H  0.39264778  0.07207140  0.17203180     0.18200
H89         H  0.37127583  0.10646402  0.00243034     0.18200
F90         F  0.34953474  0.13149820  0.07691055    -0.19500
C91         C  0.36074160  0.45524517  0.45166581    -0.21000
C92         C  0.34013000  0.43519890  0.49533767    -0.09000
C93         C  0.33480858  0.45728600  0.03297303     0.29800
C94         C  0.35587058  0.49571395  0.03245595    -0.21000
C95         C  0.38237471  0.01591514  0.49352148    -0.09000
C96         C  0.38072620  0.49430985  0.45014825     0.29800
F97         F  0.39314435  0.01025058  0.40366627    -0.19600
H98         H  0.35777953  0.44100464  0.41594036     0.18200
H99         H  0.34726967  0.00882552  0.06111093     0.18200
F100        F  0.30534767  0.44365208  0.06612010    -0.19500
C101        C  0.10459880  0.20322130  0.04022149    -0.21000
C102        C  0.08540764  0.16407633  0.04534075    -0.09000
C103        C  0.07943601  0.14938920  0.09535004     0.29800
C104        C  0.09015698  0.17288426  0.13779839    -0.21000
C105        C  0.10591650  0.21130150  0.13173313    -0.09000
C106        C  0.11299775  0.22626200  0.08272984     0.29800
F107        F  0.12834537  0.26338239  0.07587321    -0.19600
H108        H  0.11281205  0.21673409  0.00366991     0.18200
H109        H  0.08486983  0.16095848  0.17555894     0.18200
F110        F  0.06159613  0.11211803  0.10323705    -0.19500
C111        C  0.07643764  0.20450347  0.39361634    -0.21000
C112        C  0.10279998  0.20462665  0.35939408    -0.09000
C113        C  0.11573555  0.17984456  0.36661868     0.29800
C114        C  0.10349882  0.15630754  0.40897268    -0.21000
C115        C  0.08015352  0.15886818  0.44747320    -0.09000
C116        C  0.06532477  0.18229705  0.43706340     0.29800
F117        F  0.04207785  0.18618153  0.47057355    -0.19600
H118        H  0.06587920  0.22326329  0.38817039     0.18200
H119        H  0.11330836  0.13680415  0.41122190     0.18200
F120        F  0.14013083  0.17827066  0.33251131    -0.19500
C121        C  0.00815265  0.08613003  0.46609499    -0.21000
C122        C  0.02739065  0.11426638  0.00209844    -0.09000
C123        C  0.00576261  0.12503921  0.03297504     0.29800
C124        C  0.46793740  0.10836367  0.02768412    -0.21000
C125        C  0.44755941  0.07693827  0.49635408    -0.09000
C126        C  0.46933524  0.06626648  0.46526425     0.29800
F127        F  0.45454849  0.03772499  0.43232956    -0.19600
H128        H  0.02350400  0.07878474  0.43875110     0.18200
H129        H  0.45529457  0.12223406  0.04788240     0.18200
F130        F  0.02058603  0.15518651  0.06396099    -0.19500
C131        C  0.17434828  0.08697431  0.09712102    -0.21000
C132        C  0.17931175  0.06697648  0.05636861    -0.09000
C133        C  0.20515217  0.05480501  0.06265736     0.29800
C134        C  0.22839812  0.06675855  0.10397627    -0.21000
C135        C  0.22608308  0.09026660  0.14114256    -0.09000
C136        C  0.19777979  0.09905789  0.13834411     0.29800
F137        F  0.19280159  0.11966308  0.17512498    -0.19600
H138        H  0.15284465  0.09419414  0.09736430     0.18200
H139        H  0.24923655  0.05859273  0.10572963     0.18200
F140        F  0.21024886  0.03386766  0.02660570    -0.19500
C141        C  0.16882281  0.06647461  0.40984569    -0.21000
C142        C  0.18415767  0.07497212  0.45876805    -0.09000
C143        C  0.22274697  0.10104780  0.46103100     0.29800
C144        C  0.24476518  0.11390374  0.41668346    -0.21000
C145        C  0.22959823  0.10187321  0.36896840    -0.09000
C146        C  0.19135286  0.07850859  0.36554563     0.29800
F147        F  0.17577615  0.06777151  0.31944295    -0.19600
H148        H  0.13928827  0.04863418  0.40613281     0.18200
H149        H  0.27409935  0.13336616  0.41967869     0.18200
F150        F  0.23955468  0.11669142  0.50512293    -0.19500
C151        C  0.12933463  0.13352065  0.00259661    -0.21000
C152        C  0.09035714  0.11369181  0.50184159    -0.09000
C153        C  0.07299608  0.07444705  0.50671037     0.29800
C154        C  0.09393306  0.05645735  0.50522907    -0.21000
C155        C  0.13295318  0.07653819  0.50602615    -0.09000
C156        C  0.15000996  0.11581070  0.00550312     0.29800
F157        F  0.18716922  0.13768984  0.00842102    -0.19600
H158        H  0.14418821  0.16360699  0.00097089     0.18200
H159        H  0.07866348  0.02654016  0.50456191     0.18200
F160        F  0.03621123  0.05273858  0.51611147    -0.19500
C161        C  0.10252783  0.33388975  0.41793564    -0.21000
C162        C  0.10004201  0.34643723  0.37023519    -0.09000
C163        C  0.08591552  0.37058281  0.36678620     0.29800
C164        C  0.07522681  0.38258078  0.41100268    -0.21000
C165        C  0.08126335  0.37341307  0.46000030    -0.09000
C166        C  0.09340232  0.34689874  0.46226568     0.29800
F167        F  0.09432864  0.33107121  0.50636124    -0.19600
H168        H  0.11205076  0.31405229  0.42095746     0.18200
H169        H  0.06385895  0.40080321  0.40719120     0.18200
F170        F  0.08199346  0.38214118  0.32071231    -0.19500
C171        C  0.13396206  0.38199268  0.10499897    -0.21000
C172        C  0.10851214  0.35859235  0.14238539    -0.09000
C173        C  0.07130512  0.34927757  0.13949144     0.29800
C174        C  0.05955606  0.36090843  0.09810893    -0.21000
C175        C  0.08430549  0.38122412  0.05749129    -0.09000
C176        C  0.12231673  0.39355231  0.06358968     0.29800
F177        F  0.14807860  0.41440600  0.02734625    -0.19600
H178        H  0.16298428  0.39040992  0.10668338     0.18200
H179        H  0.03074838  0.35322298  0.09818584     0.18200
F180        F  0.04602293  0.32866579  0.17640979    -0.19500
C181        C  0.12152910  0.45391607  0.46921235    -0.21000
C182        C  0.09266601  0.43400287  0.50549593    -0.09000
C183        C  0.08819064  0.45541444  0.04470363     0.29800
C184        C  0.10872998  0.49447053  0.04391157    -0.21000
C185        C  0.13492834  0.01434349  0.50441659    -0.09000
C186        C  0.14245353  0.49259685  0.46889861     0.29800
F187        F  0.17257898  0.00744567  0.43689756    -0.19600
H188        H  0.13076916  0.43997419  0.44258524     0.18200
H189        H  0.10419137  0.00951878  0.07476844     0.18200
F190        F  0.06431629  0.43853253  0.08467865    -0.19500
C191        C  0.34505147  0.24403542  0.39405129    -0.21000
C192        C  0.37147713  0.24444736  0.35962308    -0.09000
C193        C  0.40892264  0.26987936  0.36637294     0.29800
C194        C  0.41987067  0.29363299  0.40844581    -0.21000
C195        C  0.39395266  0.29053485  0.44717680    -0.09000
C196        C  0.35587036  0.26643514  0.43736451     0.29800
F197        F  0.32887526  0.26179484  0.47160898    -0.19600
H198        H  0.31592070  0.22467778  0.38894868     0.18200
H199        H  0.44895310  0.31362132  0.41049377     0.18200
F200        F  0.43495227  0.27179768  0.33212129    -0.19500
C201        C  0.40147998  0.30043407  0.09440815    -0.21000
C202        C  0.39418903  0.28494694  0.04482688    -0.09000
C203        C  0.37786243  0.24567082  0.04075581     0.29800
C204        C  0.36411210  0.22335068  0.08397305    -0.21000
C205        C  0.36907061  0.23910255  0.13235066    -0.09000
C206        C  0.38909333  0.27780357  0.13765729     0.29800
F207        F  0.39544046  0.29367241  0.18450707    -0.19600
H208        H  0.41556489  0.33032365  0.09942161     0.18200
H209        H  0.35046980  0.19345783  0.07974055     0.18200
F210        F  0.37666410  0.22823584  0.99621549    -0.19500
C211        C  0.46813729  0.31546106  0.50209647    -0.21000
C212        C  0.44895453  0.33540479  0.50185082    -0.09000
C213        C  0.47062057  0.37456916  0.00754970     0.29800
C214        C  0.00950973  0.39244986  0.00684226    -0.21000
C215        C  0.02841412  0.37216206  0.50718828    -0.09000
C216        C  0.00631389  0.33293748  0.50569810     0.29800
F217        F  0.02149230  0.31081657  0.50803231    -0.19600
H218        H  0.45310177  0.28541273  0.49953281     0.18200
H219        H  0.02423154  0.42239980  0.00712750     0.18200
F220        F  0.45525441  0.39620129  0.01646699    -0.19500
C221        C  0.39381255  0.36269884  0.46514101    -0.21000
C222        C  0.38540980  0.33494020  0.50167216    -0.09000
C223        C  0.35319684  0.32440658  0.03265982     0.29800
C224        C  0.33247003  0.34180219  0.02829416    -0.21000
C225        C  0.34317774  0.37304684  0.49658826    -0.09000
C226        C  0.37430104  0.38215837  0.46342271     0.29800
F227        F  0.38507651  0.40756562  0.42611537    -0.19600
H228        H  0.41596905  0.36939576  0.43719102     0.18200
H229        H  0.30639820  0.32847811  0.04938998     0.18200
F230        F  0.33773020  0.29396123  0.06307844    -0.19500
C231        C  0.40579054  0.31194996  0.49872096    -0.02200
C232        C  0.07149338  0.39038747  0.00776197    -0.02200
C233        C  0.15763010  0.05797491  0.00642290    -0.02200
C234        C  0.07051343  0.13718979  0.49906756    -0.02200
C235        C  0.40430063  0.05987866  0.99341891    -0.02200
C236        C  0.31763820  0.39129284  0.99509584    -0.02200
O237        O  0.13823292  0.23577737  0.70749217    -0.85000
O238        O  0.19966968  0.30223307  0.68288599    -0.82100
C239        C  0.22045857  0.33677120  0.67805182     0.98400
O240        O  0.21992166  0.35890424  0.71136015    -0.82100
O241        O  0.15518420  0.35620984  0.68803998    -0.84700
C242        C  0.12110273  0.34364722  0.68306597     1.03000
O243        O  0.09785289  0.31847546  0.71276289    -0.77500
O244        O  0.10275743  0.25713489  0.68293886    -0.77700
C245        C  0.11607387  0.23596888  0.67623370     1.02900
O246        O  0.15231041  0.25291412  0.81274178    -0.85000
O247        O  0.21837157  0.31636741  0.78917439    -0.82100
C248        C  0.21938912  0.34016458  0.82104348     0.98500
O249        O  0.19779061  0.35287334  0.81726384    -0.82100
O250        O  0.13644751  0.35728249  0.79432932    -0.84700
C251        C  0.11223642  0.33375695  0.82486354     1.04700
O252        O  0.09898314  0.29944112  0.81739148    -0.77500
O253        O  0.09593304  0.23460005  0.78840701    -0.77700
C254        C  0.11781498  0.23202974  0.81800593     1.02900
Cr255      Cr  0.17552196  0.27878569  0.74828923     1.93700
Cr256      Cr  0.17552944  0.35265917  0.75266458     1.93200
Cr257      Cr  0.10234510  0.27910546  0.75028777     1.39100
O258        O  0.15109801  0.30348540  0.75078442    -1.22800
O259        O  0.32055020  0.19282216  0.68276387    -0.85000
O260        O  0.25499760  0.13063536  0.71150880    -0.82100
C261        C  0.25365867  0.10571697  0.68162066     0.98400
O262        O  0.27575000  0.09374971  0.68628487    -0.82100
O263        O  0.33835183  0.09228206  0.70917702    -0.84700
C264        C  0.36062177  0.11483754  0.67601192     1.03000
O265        O  0.37387909  0.14928652  0.68165669    -0.77500
O266        O  0.37722276  0.21491549  0.70802499    -0.77700
C267        C  0.35483989  0.21453639  0.67669975     1.02900
O268        O  0.33537348  0.21460194  0.78833914    -0.85000
O269        O  0.27464728  0.14927735  0.81635772    -0.82100
C270        C  0.25427921  0.11489017  0.82353824     0.98500
O271        O  0.25552578  0.09169817  0.79270546    -0.82100
O272        O  0.32157117  0.09716327  0.81537116    -0.84700
C273        C  0.35576603  0.11020012  0.81959868     1.02900
O274        O  0.37840976  0.13423755  0.78798051    -0.77500
O275        O  0.37387748  0.19671072  0.81275343    -0.77700
C276        C  0.35968868  0.21720311  0.81816424     1.02900
Cr277      Cr  0.29818692  0.17018744  0.74959592     1.93700
Cr278      Cr  0.29958180  0.09733454  0.75084461     1.93200
Cr279      Cr  0.37230663  0.17177508  0.74776255     1.39100
O280        O  0.32334635  0.14645998  0.74971264    -1.22800
C281        C  0.28322581  0.37228904  0.63679636    -0.21000
C282        C  0.24491386  0.35111342  0.63267748    -0.09000
C283        C  0.22969079  0.34234005  0.58453723     0.29800
C284        C  0.25229987  0.35451924  0.54073783    -0.21000
C285        C  0.29115721  0.37709878  0.54350256    -0.09000
C286        C  0.30620484  0.38457988  0.59302707     0.29800
F287        F  0.34335088  0.40455950  0.59877739    -0.19600
H288        H  0.29538540  0.37877277  0.67389283     0.18200
H289        H  0.23859437  0.34537473  0.50507429     0.18200
F290        F  0.19256082  0.32245168  0.57984850    -0.19500
C291        C  0.24828945  0.38219118  0.89480380    -0.21000
C292        C  0.24634121  0.35406110  0.86247915    -0.09000
C293        C  0.26952236  0.33933364  0.87126517     0.29800
C294        C  0.29293809  0.35156426  0.91267464    -0.21000
C295        C  0.29436545  0.37924339  0.94631939    -0.09000
C296        C  0.27181374  0.39474058  0.93568863     0.29800
F297        F  0.27055432  0.42050742  0.96689236    -0.19600
H298        H  0.23089885  0.39422968  0.88918718     0.18200
H299        H  0.30893111  0.33813267  0.91860619     0.18200
F300        F  0.26907274  0.31243054  0.84066832    -0.19500
C301        C  0.35600274  0.05562985  0.93329954    -0.21000
C302        C  0.39387533  0.07274674  0.94458065    -0.09000
C303        C  0.41929576  0.10231811  0.91234051     0.29800
C304        C  0.40679731  0.11369444  0.87132808    -0.21000
C305        C  0.36899849  0.09663735  0.86132880    -0.09000
C306        C  0.34374512  0.06711533  0.89268478     0.29800
F307        F  0.30684766  0.04940720  0.88490697    -0.19600
H308        H  0.33533553  0.03364967  0.95731983     0.18200
H309        H  0.42685101  0.13671077  0.84806639     0.18200
F310        F  0.45600958  0.12192211  0.92085777    -0.19500
C311        C  0.38756734  0.07898450  0.63481130    -0.21000
C312        C  0.37122291  0.10097135  0.63039413    -0.09000
C313        C  0.36558379  0.11033112  0.58200818     0.29800
C314        C  0.37564612  0.09739552  0.53835318    -0.21000
C315        C  0.39150748  0.07427741  0.54157282    -0.09000
C316        C  0.39841675  0.06653983  0.59136145     0.29800
F317        F  0.41542133  0.04634406  0.59771461    -0.19600
H318        H  0.39266606  0.07208132  0.67203922     0.18200
H319        H  0.37130239  0.10649176  0.50242277     0.18200
F320        F  0.34957043  0.13152901  0.57691366    -0.19500
C321        C  0.36074057  0.45523672  0.95166896    -0.21000
C322        C  0.34012635  0.43519037  0.99533867    -0.09000
C323        C  0.33481735  0.45729447  0.53297545     0.29800
C324        C  0.35588026  0.49572163  0.53245675    -0.21000
C325        C  0.38236895  0.01590769  0.99352456    -0.09000
C326        C  0.38072398  0.49430162  0.95015015     0.29800
F327        F  0.39313572  0.01024149  0.90366756    -0.19600
H328        H  0.35777681  0.44099480  0.91594161     0.18200
H329        H  0.34728294  0.00883282  0.56111080     0.18200
F330        F  0.30536045  0.44366189  0.56613037    -0.19500
C331        C  0.10460876  0.20322693  0.54022182    -0.21000
C332        C  0.08540970  0.16408095  0.54534320    -0.09000
C333        C  0.07942771  0.14939210  0.59535246     0.29800
C334        C  0.09014580  0.17288658  0.63779921    -0.21000
C335        C  0.10591259  0.21130382  0.63173556    -0.09000
C336        C  0.11300433  0.22626615  0.58273263     0.29800
F337        F  0.12835973  0.26338743  0.57587641    -0.19600
H338        H  0.11283015  0.21674169  0.50366730     0.18200
H339        H  0.08485173  0.16096080  0.67555703     0.18200
F340        F  0.06158105  0.11212078  0.60323818    -0.19500
C341        C  0.07642496  0.20449513  0.89361337    -0.21000
C342        C  0.10279272  0.20462411  0.85939364    -0.09000
C343        C  0.11573177  0.17984519  0.86661792     0.29800
C344        C  0.10349613  0.15630840  0.90897048    -0.21000
C345        C  0.08014774  0.15886278  0.94747053    -0.09000
C346        C  0.06531298  0.18228600  0.93705969     0.29800
F347        F  0.04205938  0.18616235  0.97056812    -0.19600
H348        H  0.06586107  0.22325114  0.88816638     0.18200
H349        H  0.11330870  0.13681024  0.91121854     0.18200
F350        F  0.14012952  0.17827490  0.83251120    -0.19500
C351        C  0.00814981  0.08613138  0.96608316    -0.21000
C352        C  0.02739414  0.11427374  0.50209820    -0.09000
C353        C  0.00576713  0.12505558  0.53295767     0.29800
C354        C  0.46794456  0.10838180  0.52765723    -0.21000
C355        C  0.44755327  0.07693052  0.99636105    -0.09000
C356        C  0.46933005  0.06627083  0.96525207     0.29800
F357        F  0.45454532  0.03774713  0.93229010    -0.19600
H358        H  0.02350370  0.07879261  0.93872584     0.18200
H359        H  0.45530284  0.12225840  0.54783685     0.18200
F360        F  0.02059101  0.15520909  0.56393443    -0.19500
C361        C  0.17435379  0.08698145  0.59712528    -0.21000
C362        C  0.17931435  0.06698142  0.55637330    -0.09000
C363        C  0.20515458  0.05480956  0.56266015     0.29800
C364        C  0.22840220  0.06676406  0.60397683    -0.21000
C365        C  0.22608986  0.09027313  0.64114339    -0.09000
C366        C  0.19778732  0.09906580  0.63834638     0.29800
F367        F  0.19281176  0.11967292  0.67512665    -0.19600
H368        H  0.15285082  0.09420253  0.59737011     0.18200
H369        H  0.24923961  0.05859692  0.60572834     0.18200
F370        F  0.21024953  0.03387077  0.52660909    -0.19500
C371        C  0.16882906  0.06647303  0.90983846    -0.21000
C372        C  0.18415939  0.07496959  0.95876365    -0.09000
C373        C  0.22274831  0.10104512  0.96103177     0.29800
C374        C  0.24476999  0.11390097  0.91668708    -0.21000
C375        C  0.22960661  0.10187042  0.86896963    -0.09000
C376        C  0.19136185  0.07850585  0.86554169     0.29800
F377        F  0.17578816  0.06776804  0.81943734    -0.19600
H378        H  0.13929560  0.04863343  0.90611964     0.18200
H379        H  0.27410425  0.13336421  0.91968701     0.18200
F380        F  0.23955349  0.11668905  0.00512534    -0.19500
C381        C  0.12933855  0.13352603  0.50259920    -0.21000
C382        C  0.09035398  0.11368644  0.00183440    -0.09000
C383        C  0.07299432  0.07444165  0.00669333     0.29800
C384        C  0.09393256  0.05645291  0.00521266    -0.21000
C385        C  0.13295250  0.07653494  0.00601713    -0.09000
C386        C  0.15001233  0.11581435  0.50550654     0.29800
F387        F  0.18717190  0.13769314  0.50841851    -0.19600
H388        H  0.14419494  0.16361455  0.50096854     0.18200
H389        H  0.07866457  0.02653596  0.00453852     0.18200
F390        F  0.03620801  0.05273003  0.01608079    -0.19500
C391        C  0.10252597  0.33388940  0.91793655    -0.21000
C392        C  0.10003945  0.34643646  0.87023755    -0.09000
C393        C  0.08591241  0.37058230  0.86679045     0.29800
C394        C  0.07522334  0.38258115  0.91100819    -0.21000
C395        C  0.08126306  0.37341145  0.96000462    -0.09000
C396        C  0.09340161  0.34689635  0.96226775     0.29800
F397        F  0.09432854  0.33106910  0.00636192    -0.19600
H398        H  0.11204942  0.31405276  0.92095550     0.18200
H399        H  0.06385388  0.40080759  0.90719864     0.18200
F400        F  0.08198978  0.38214081  0.82071733    -0.19500
C401        C  0.13395767  0.38199554  0.60500151    -0.21000
C402        C  0.10850728  0.35859277  0.64238545    -0.09000
C403        C  0.07129795  0.34927315  0.63948619     0.29800
C404        C  0.05954769  0.36090316  0.59810181    -0.21000
C405        C  0.08430024  0.38122313  0.55748773    -0.09000
C406        C  0.12231269  0.39355425  0.56359065     0.29800
F407        F  0.14807533  0.41441070  0.52735094    -0.19600
H408        H  0.16298197  0.39041594  0.60668937     0.18200
H409        H  0.03073562  0.35321379  0.59817454     0.18200
F410        F  0.04601522  0.32865755  0.67640099    -0.19500
C411        C  0.12153338  0.45391238  0.96921047    -0.21000
C412        C  0.09266964  0.43400134  0.00549633    -0.09000
C413        C  0.08818850  0.45541426  0.54470422     0.29800
C414        C  0.10873057  0.49447035  0.54391624    -0.21000
C415        C  0.13492800  0.01434086  0.00441066    -0.09000
C416        C  0.14245487  0.49259401  0.96889427     0.29800
F417        F  0.17257985  0.00744223  0.93689243    -0.19600
H418        H  0.13077658  0.43996760  0.94258102     0.18200
H419        H  0.10419370  0.00952005  0.57477657     0.18200
F420        F  0.06431370  0.43853126  0.58468011    -0.19500
C421        C  0.34505714  0.24404324  0.89404863    -0.21000
C422        C  0.37148338  0.24445465  0.85962193    -0.09000
C423        C  0.40893086  0.26988525  0.86637398     0.29800
C424        C  0.41988059  0.29363788  0.90844925    -0.21000
C425        C  0.39396023  0.29053856  0.94717952    -0.09000
C426        C  0.35587625  0.26644089  0.93736399     0.29800
F427        F  0.32888170  0.26180140  0.97160719    -0.19600
H428        H  0.31592259  0.22468451  0.88894296     0.18200
H429        H  0.44896888  0.31362668  0.91050072     0.18200
F430        F  0.43495937  0.27180184  0.83212338    -0.19500
C431        C  0.40147367  0.30043757  0.59440521    -0.21000
C432        C  0.39418455  0.28494827  0.54482527    -0.09000
C433        C  0.37786088  0.24567386  0.54075819     0.29800
C434        C  0.36411184  0.22335752  0.58397722    -0.21000
C435        C  0.36906955  0.23910909  0.63235343    -0.09000
C436        C  0.38908883  0.27780918  0.63765663     0.29800
F437        F  0.39543537  0.29368079  0.68450552    -0.19600
H438        H  0.41555522  0.33032546  0.59941546     0.18200
H439        H  0.35047178  0.19346881  0.57974735     0.18200
F440        F  0.37666489  0.22823712  0.49621965    -0.19500
C441        C  0.46814114  0.31546169  0.00210498    -0.21000
C442        C  0.44895869  0.33540513  0.00185594    -0.09000
C443        C  0.47061734  0.37456915  0.50754785     0.29800
C444        C  0.00950507  0.39245000  0.50684038    -0.21000
C445        C  0.02841776  0.37216136  0.00719616    -0.09000
C446        C  0.00631729  0.33293708  0.00571028     0.29800
F447        F  0.02149523  0.31081604  0.00804932    -0.19600
H448        H  0.45310607  0.28541428  0.99954245     0.18200
H449        H  0.02422573  0.42240009  0.50713279     0.18200
F450        F  0.45525134  0.39620085  0.51647034    -0.19500
C451        C  0.39381353  0.36269541  0.96514165    -0.21000
C452        C  0.38541479  0.33494023  0.00167699    -0.09000
C453        C  0.35319013  0.32440570  0.53265133     0.29800
C454        C  0.33246558  0.34180384  0.52828633    -0.21000
C455        C  0.34317672  0.37304042  0.99658819    -0.09000
C456        C  0.37429780  0.38215024  0.96341863     0.29800
F457        F  0.38506485  0.40754829  0.92610060    -0.19600
H458        H  0.41596856  0.36939143  0.93718892     0.18200
H459        H  0.30639226  0.32847940  0.54937673     0.18200
F460        F  0.33772109  0.29395848  0.56306679    -0.19500
C461        C  0.40579454  0.81194873  0.99872623    -0.02200
C462        C  0.07149102  0.89038825  0.50775740    -0.02200
C463        C  0.15763171  0.55797826  0.50643080    -0.02200
C464        C  0.07051002  0.63718461  0.99906556    -0.02200
C465        C  0.40430670  0.55988551  0.49341574    -0.02200
C466        C  0.31764024  0.89130036  0.49509469    -0.02200
O467        O  0.13823728  0.73577605  0.20749169    -0.85000
O468        O  0.19967205  0.80223173  0.18288534    -0.82100
C469        C  0.22046195  0.83676873  0.17805181     0.98400
O470        O  0.21992482  0.85890297  0.21135979    -0.82100
O471        O  0.15518816  0.85620771  0.18803793    -0.84700
C472        C  0.12110733  0.84364575  0.18306427     1.03000
O473        O  0.09785659  0.81847373  0.21276062    -0.77500
O474        O  0.10276193  0.75713331  0.18293730    -0.77700
C475        C  0.11607821  0.73596719  0.17623216     1.02900
O476        O  0.15231647  0.75291554  0.31274099    -0.85000
O477        O  0.21837587  0.81636925  0.28917303    -0.82100
C478        C  0.21939371  0.84016659  0.32104102     0.98500
O479        O  0.19779321  0.85287393  0.31726205    -0.82100
O480        O  0.13644990  0.85728193  0.29432609    -0.84700
C481        C  0.11223964  0.83375658  0.32486115     1.04700
O482        O  0.09898626  0.79944047  0.31738899    -0.77500
O483        O  0.09593872  0.73460006  0.28840634    -0.77700
C484        C  0.11782098  0.73203052  0.31800485     1.02900
Cr485      Cr  0.17552609  0.77878563  0.24828824     1.93700
Cr486      Cr  0.17553244  0.85265840  0.25266253     1.93200
Cr487      Cr  0.10234893  0.77910428  0.25028599     1.39100
O488        O  0.15110154  0.80348474  0.25078315    -1.22800
O489        O  0.32054718  0.69281615  0.18275845    -0.85000
O490        O  0.25499267  0.63063351  0.21150175    -0.82100
C491        C  0.25365122  0.60571093  0.18161960     0.98400
O492        O  0.27573947  0.59374070  0.18628936    -0.82100
O493        O  0.33833830  0.59227160  0.20918077    -0.84700
C494        C  0.36060505  0.61482432  0.17601149     1.03000
O495        O  0.37386526  0.64927428  0.18165352    -0.77500
O496        O  0.37721792  0.71490742  0.20802437    -0.77700
C497        C  0.35483820  0.71452891  0.17669575     1.02900
O498        O  0.33536931  0.71459774  0.28833603    -0.85000
O499        O  0.27463820  0.64927714  0.31635093    -0.82100
C500        C  0.25426933  0.61489012  0.32353543     0.98500
O501        O  0.25551608  0.59169609  0.29270720    -0.82100
O502        O  0.32156094  0.59715954  0.31537606    -0.84700
C503        C  0.35575519  0.61019320  0.31959997     1.02900
O504        O  0.37839836  0.63422637  0.28797618    -0.77500
O505        O  0.37387079  0.69670321  0.31275158    -0.77700
C506        C  0.35968237  0.71719650  0.31816272     1.02900
Cr507      Cr  0.29818141  0.67018440  0.24959036     1.93700
Cr508      Cr  0.29957095  0.59732820  0.25084862     1.93200
Cr509      Cr  0.37229771  0.67176569  0.24776014     1.39100
O510        O  0.32333756  0.64645374  0.24971162    -1.22800
C511        C  0.28323054  0.87229226  0.13680049    -0.21000
C512        C  0.24491755  0.85111038  0.13268003    -0.09000
C513        C  0.22969260  0.84232703  0.08453838     0.29800
C514        C  0.25230076  0.85450423  0.04073891    -0.21000
C515        C  0.29115727  0.87709049  0.04350204    -0.09000
C516        C  0.30620750  0.88457946  0.09302768     0.29800
F517        F  0.34335296  0.90456326  0.09877566    -0.19600
H518        H  0.29539483  0.87878460  0.17390336     0.18200
H519        H  0.23859455  0.84535184  0.00507231     0.18200
F520        F  0.19256349  0.82243091  0.07985127    -0.19500
C521        C  0.24829843  0.88220201  0.39479309    -0.21000
C522        C  0.24634669  0.85406676  0.36247556    -0.09000
C523        C  0.26952511  0.83933611  0.37126818     0.29800
C524        C  0.29293969  0.85156750  0.41267935    -0.21000
C525        C  0.29436915  0.87925024  0.44631815    -0.09000
C526        C  0.27182201  0.89475205  0.43567937     0.29800
F527        F  0.27056712  0.92052476  0.46687467    -0.19600
H528        H  0.23090971  0.89424471  0.38917090     0.18200
H529        H  0.30893067  0.83813291  0.41861770     0.18200
F530        F  0.26907223  0.81242941  0.34067723    -0.19500
C531        C  0.35599801  0.55564409  0.43332300    -0.21000
C532        C  0.39387475  0.57274864  0.44457883    -0.09000
C533        C  0.41929522  0.60229897  0.41230886     0.29800
C534        C  0.40679235  0.61367290  0.37129877    -0.21000
C535        C  0.36898992  0.59663332  0.36132957    -0.09000
C536        C  0.34373620  0.56712929  0.39271224     0.29800
F537        F  0.30683581  0.54944040  0.38496533    -0.19600
H538        H  0.33533048  0.53367560  0.45736355     0.18200
H539        H  0.42684805  0.63667392  0.34801097     0.18200
F540        F  0.45601466  0.62188252  0.42078960    -0.19500
C541        C  0.38754935  0.57897156  0.13480899    -0.21000
C542        C  0.37120228  0.60095522  0.13039191    -0.09000
C543        C  0.36555804  0.61030915  0.08200764     0.29800
C544        C  0.37562495  0.59737647  0.03835481    -0.21000
C545        C  0.39149574  0.57426769  0.04157576    -0.09000
C546        C  0.39840138  0.56652830  0.09136247     0.29800
F547        F  0.41540601  0.54633201  0.09771878    -0.19600
H548        H  0.39264831  0.57207087  0.17203165     0.18200
H549        H  0.37127462  0.60646439  0.00242908     0.18200
F550        F  0.34953455  0.63149833  0.07691127    -0.19500
C551        C  0.36074076  0.95524340  0.45166276    -0.21000
C552        C  0.34012975  0.93519825  0.49533669    -0.09000
C553        C  0.33480865  0.95728494  0.03297137     0.29800
C554        C  0.35587052  0.99571197  0.03245356    -0.21000
C555        C  0.38237451  0.51591555  0.49352299    -0.09000
C556        C  0.38072613  0.99430923  0.45014686     0.29800
F557        F  0.39314421  0.51025097  0.40366782    -0.19600
H558        H  0.35777681  0.94100126  0.41593537     0.18200
H559        H  0.34727010  0.50883017  0.06111749     0.18200
F560        F  0.30534741  0.94365086  0.06611899    -0.19500
C561        C  0.10459883  0.70322151  0.04022173    -0.21000
C562        C  0.08540757  0.66407641  0.04534127    -0.09000
C563        C  0.07943597  0.64938914  0.09535034     0.29800
C564        C  0.09015697  0.67288427  0.13779854    -0.21000
C565        C  0.10591664  0.71130161  0.13173325    -0.09000
C566        C  0.11299776  0.72626217  0.08273010     0.29800
F567        F  0.12834548  0.76338269  0.07587327    -0.19600
H568        H  0.11281205  0.71673427  0.00367011     0.18200
H569        H  0.08487002  0.66095884  0.17555887     0.18200
F570        F  0.06159593  0.61211775  0.10323728    -0.19500
C571        C  0.07643716  0.70450423  0.39361644    -0.21000
C572        C  0.10279988  0.70462689  0.35939474    -0.09000
C573        C  0.11573471  0.67984518  0.36661975     0.29800
C574        C  0.10349758  0.65630938  0.40897309    -0.21000
C575        C  0.08015303  0.65886875  0.44747341    -0.09000
C576        C  0.06532458  0.68229730  0.43706374     0.29800
F577        F  0.04207715  0.68618197  0.47057414    -0.19600
H578        H  0.06587928  0.72326339  0.38817053     0.18200
H579        H  0.11330428  0.63680798  0.41122117     0.18200
F580        F  0.14013018  0.67827083  0.33251241    -0.19500
C581        C  0.00815392  0.58612888  0.46609076    -0.21000
C582        C  0.02739005  0.61426610  0.00209892    -0.09000
C583        C  0.00576268  0.62503927  0.03297504     0.29800
C584        C  0.46793626  0.60836473  0.02768438    -0.21000
C585        C  0.44755858  0.57693762  0.49635382    -0.09000
C586        C  0.46933443  0.56626567  0.46526322     0.29800
F587        F  0.45454781  0.53772431  0.43232878    -0.19600
H588        H  0.02350702  0.57878131  0.43874449     0.18200
H589        H  0.45529087  0.62223735  0.04788488     0.18200
F590        F  0.02058624  0.65518715  0.06396145    -0.19500
C591        C  0.17434930  0.58697405  0.09712047    -0.21000
C592        C  0.17931208  0.56697671  0.05636796    -0.09000
C593        C  0.20515228  0.55480464  0.06265664     0.29800
C594        C  0.22839880  0.56675781  0.10397579    -0.21000
C595        C  0.22608338  0.59026619  0.14114221    -0.09000
C596        C  0.19778007  0.59905758  0.13834373     0.29800
F597        F  0.19280184  0.61966278  0.17512441    -0.19600
H598        H  0.15284616  0.59419350  0.09736337     0.18200
H599        H  0.24923777  0.55859120  0.10572889     0.18200
F600        F  0.21024891  0.53386726  0.02660498    -0.19500
C601        C  0.16882369  0.56647513  0.40984629    -0.21000
C602        C  0.18415794  0.57497197  0.45876882    -0.09000
C603        C  0.22274806  0.60104862  0.46103205     0.29800
C604        C  0.24476778  0.61390556  0.41668431    -0.21000
C605        C  0.22959942  0.60187398  0.36896869    -0.09000
C606        C  0.19135316  0.57850876  0.36554597     0.29800
F607        F  0.17577693  0.56777196  0.31944385    -0.19600
H608        H  0.13928771  0.54863367  0.40613324     0.18200
H609        H  0.27410602  0.63337091  0.41968032     0.18200
F610        F  0.23955537  0.61669197  0.50512366    -0.19500
C611        C  0.12933622  0.63352217  0.00259739    -0.21000
C612        C  0.09035689  0.61369076  0.50184125    -0.09000
C613        C  0.07299640  0.57444697  0.50671003     0.29800
C614        C  0.09393292  0.55645601  0.50522915    -0.21000
C615        C  0.13295374  0.57653830  0.50602703    -0.09000
C616        C  0.15001070  0.61581092  0.00550328     0.29800
F617        F  0.18717097  0.63769068  0.00842112    -0.19600
H618        H  0.14418961  0.66360685  0.00097186     0.18200
H619        H  0.07866359  0.52653907  0.50456125     0.18200
F620        F  0.03621076  0.55273766  0.51611168    -0.19500
C621        C  0.10252799  0.83388966  0.41793566    -0.21000
C622        C  0.10004192  0.84643696  0.37023514    -0.09000
C623        C  0.08591559  0.87058257  0.36678626     0.29800
C624        C  0.07522693  0.88258068  0.41100267    -0.21000
C625        C  0.08126374  0.87341304  0.46000037    -0.09000
C626        C  0.09340250  0.84689870  0.46226556     0.29800
F627        F  0.09432880  0.83107125  0.50636122    -0.19600
H628        H  0.11205093  0.81405256  0.42095741     0.18200
H629        H  0.06385911  0.90080303  0.40719110     0.18200
F630        F  0.08199350  0.88214114  0.32071239    -0.19500
C631        C  0.13396223  0.88199274  0.10499890    -0.21000
C632        C  0.10851219  0.85859251  0.14238537    -0.09000
C633        C  0.07130529  0.84927780  0.13949150     0.29800
C634        C  0.05955618  0.86090848  0.09810900    -0.21000
C635        C  0.08430575  0.88122371  0.05749119    -0.09000
C636        C  0.12231688  0.89355238  0.06358972     0.29800
F637        F  0.14807884  0.91440609  0.02734607    -0.19600
H638        H  0.16298399  0.89040959  0.10668322     0.18200
H639        H  0.03074868  0.85322252  0.09818554     0.18200
F640        F  0.04602303  0.82866576  0.17640988    -0.19500
C641        C  0.12152928  0.95391651  0.46921279    -0.21000
C642        C  0.09266661  0.93400303  0.50549631    -0.09000
C643        C  0.08819052  0.95541341  0.04470310     0.29800
C644        C  0.10872997  0.99446902  0.04391073    -0.21000
C645        C  0.13492880  0.51434300  0.50441640    -0.09000
C646        C  0.14245356  0.99259703  0.46889893     0.29800
F647        F  0.17257922  0.50744554  0.43689712    -0.19600
H648        H  0.13076938  0.93997473  0.44258526     0.18200
H649        H  0.10419181  0.50952120  0.07476967     0.18200
F650        F  0.06431621  0.93853175  0.08467784    -0.19500
C651        C  0.34505278  0.74403639  0.39405135    -0.21000
C652        C  0.37147759  0.74444780  0.35962273    -0.09000
C653        C  0.40892399  0.76988006  0.36637182     0.29800
C654        C  0.41987415  0.79363498  0.40844484    -0.21000
C655        C  0.39395452  0.79053567  0.44717629    -0.09000
C656        C  0.35587137  0.76643580  0.43736405     0.29800
F657        F  0.32887669  0.76179559  0.47160840    -0.19600
H658        H  0.31592160  0.72467842  0.38894895     0.18200
H659        H  0.44896039  0.81362430  0.41049339     0.18200
F660        F  0.43495289  0.77179747  0.33211999    -0.19500
C661        C  0.40147755  0.80042881  0.09440773    -0.21000
C662        C  0.39418755  0.78494466  0.04482731    -0.09000
C663        C  0.37786085  0.74566826  0.04075529     0.29800
C664        C  0.36410927  0.72334479  0.08397276    -0.21000
C665        C  0.36906980  0.73910052  0.13235074    -0.09000
C666        C  0.38909269  0.77780180  0.13765682     0.29800
F667        F  0.39543986  0.79367092  0.18450569    -0.19600
H668        H  0.41556110  0.83031475  0.09942094     0.18200
H669        H  0.35046429  0.69344676  0.07974023     0.18200
F670        F  0.37666331  0.72823386  0.99621435    -0.19500
C671        C  0.46813801  0.81546108  0.50209674    -0.21000
C672        C  0.44895552  0.83540479  0.50185120    -0.09000
C673        C  0.47062058  0.87456883  0.00755028     0.29800
C674        C  0.00950959  0.89244846  0.00684202    -0.21000
C675        C  0.02841476  0.87216171  0.50718924    -0.09000
C676        C  0.00631397  0.83293725  0.50569879     0.29800
F677        F  0.02149212  0.81081605  0.50803242    -0.19600
H678        H  0.45310305  0.78541329  0.49953324     0.18200
H679        H  0.02423193  0.92239880  0.00712777     0.18200
F680        F  0.45525455  0.89620042  0.01646687    -0.19500
C681        C  0.39381331  0.86269856  0.46514055    -0.21000
C682        C  0.38541029  0.83494005  0.50167223    -0.09000
C683        C  0.35319689  0.82440594  0.03266061     0.29800
C684        C  0.33246983  0.84180118  0.02829490    -0.21000
C685        C  0.34317890  0.87304737  0.49658768    -0.09000
C686        C  0.37430183  0.88215848  0.46342269     0.29800
F687        F  0.38507760  0.90756573  0.42611461    -0.19600
H688        H  0.41596900  0.86939453  0.43719076     0.18200
H689        H  0.30639842  0.82847717  0.04939083     0.18200
F690        F  0.33773008  0.79396049  0.06307904    -0.19500
C691        C  0.40579125  0.81194970  0.49872075    -0.02200
C692        C  0.07149324  0.89038623  0.00776100    -0.02200
C693        C  0.15762993  0.55797500  0.00642252    -0.02200
C694        C  0.07051330  0.63718934  0.49906721    -0.02200
C695        C  0.40430059  0.55987850  0.99341806    -0.02200
C696        C  0.31763846  0.89129225  0.99509520    -0.02200
O697        O  0.13823299  0.73577731  0.70749231    -0.85000
O698        O  0.19967001  0.80223318  0.68288572    -0.82100
C699        C  0.22045945  0.83677070  0.67805203     0.98400
O700        O  0.21992191  0.85890423  0.71136033    -0.82100
O701        O  0.15518523  0.85621022  0.68804027    -0.84700
C702        C  0.12110398  0.84364770  0.68306568     1.03000
O703        O  0.09785359  0.81847584  0.71276231    -0.77500
O704        O  0.10275740  0.75713465  0.68293880    -0.77700
C705        C  0.11607359  0.73596845  0.67623399     1.02900
O706        O  0.15231078  0.75291418  0.81274193    -0.85000
O707        O  0.21837178  0.81636719  0.78917395    -0.82100
C708        C  0.21938989  0.84016374  0.82104320     0.98500
O709        O  0.19779104  0.85287311  0.81726402    -0.82100
O710        O  0.13644779  0.85728225  0.79432912    -0.84700
C711        C  0.11223759  0.83375663  0.82486328     1.04700
O712        O  0.09898336  0.79944041  0.81739018    -0.77500
O713        O  0.09593318  0.73459957  0.78840786    -0.77700
C714        C  0.11781510  0.73202867  0.81800525     1.02900
Cr715      Cr  0.17552198  0.77878564  0.74828906     1.93700
Cr716      Cr  0.17552978  0.85265920  0.75266461     1.93200
Cr717      Cr  0.10234517  0.77910530  0.75028741     1.39100
O718        O  0.15109808  0.80348540  0.75078424    -1.22800
O719        O  0.32054996  0.69282178  0.68276419    -0.85000
O720        O  0.25499806  0.63063508  0.71150868    -0.82100
C721        C  0.25365945  0.60571681  0.68162083     0.98400
O722        O  0.27575113  0.59374977  0.68628547    -0.82100
O723        O  0.33835221  0.59228265  0.70917643    -0.84700
C724        C  0.36062091  0.61483799  0.67601110     1.03000
O725        O  0.37387927  0.64928722  0.68165656    -0.77500
O726        O  0.37722263  0.71491543  0.70802503    -0.77700
C727        C  0.35484038  0.71453574  0.67669901     1.02900
O728        O  0.33537373  0.71460218  0.78833986    -0.85000
O729        O  0.27464681  0.64927703  0.81635799    -0.82100
C730        C  0.25427862  0.61488984  0.82353806     0.98500
O731        O  0.25552570  0.59169798  0.79270550    -0.82100
O732        O  0.32157142  0.59716326  0.81537159    -0.84700
C733        C  0.35576630  0.61020004  0.81959911     1.02900
O734        O  0.37840998  0.63423745  0.78798122    -0.77500
O735        O  0.37387772  0.69671085  0.81275385    -0.77700
C736        C  0.35968902  0.71720380  0.81816398     1.02900
Cr737      Cr  0.29818688  0.67018739  0.74959624     1.93700
Cr738      Cr  0.29958226  0.59733465  0.75084495     1.93200
Cr739      Cr  0.37230676  0.67177522  0.74776285     1.39100
O740        O  0.32334649  0.64646007  0.74971286    -1.22800
C741        C  0.28322829  0.87229042  0.63679738    -0.21000
C742        C  0.24491542  0.85111387  0.63267872    -0.09000
C743        C  0.22969084  0.84233993  0.58453764     0.29800
C744        C  0.25229947  0.85451891  0.54073766    -0.21000
C745        C  0.29115716  0.87709857  0.54350109    -0.09000
C746        C  0.30620612  0.88458058  0.59302625     0.29800
F747        F  0.34335187  0.90456016  0.59877579    -0.19600
H748        H  0.29539149  0.87877656  0.67389671     0.18200
H749        H  0.23859267  0.84537377  0.50507216     0.18200
F750        F  0.19256115  0.82245173  0.57985002    -0.19500
C751        C  0.24828920  0.88219031  0.89480256    -0.21000
C752        C  0.24634106  0.85406035  0.86247843    -0.09000
C753        C  0.26952328  0.83933190  0.87126476     0.29800
C754        C  0.29294035  0.85156133  0.91267506    -0.21000
C755        C  0.29436653  0.87924163  0.94631938    -0.09000
C756        C  0.27181376  0.89473982  0.93568753     0.29800
F757        F  0.27055439  0.92050596  0.96689047    -0.19600
H758        H  0.23089552  0.89422944  0.88918464     0.18200
H759        H  0.30893662  0.83812650  0.91860758     0.18200
F760        F  0.26907290  0.81242976  0.84066777    -0.19500
C761        C  0.35599991  0.55562786  0.93330152    -0.21000
C762        C  0.39387387  0.57274600  0.94458151    -0.09000
C763        C  0.41929501  0.60231754  0.91234086     0.29800
C764        C  0.40679678  0.61369357  0.87132907    -0.21000
C765        C  0.36899859  0.59663736  0.86132890    -0.09000
C766        C  0.34374411  0.56711484  0.89268481     0.29800
F767        F  0.30684688  0.54940699  0.88490603    -0.19600
H768        H  0.33532990  0.53364501  0.95732375     0.18200
H769        H  0.42685080  0.63670955  0.84806757     0.18200
F770        F  0.45600831  0.62192098  0.92085839    -0.19500
C771        C  0.38756601  0.57898640  0.63480969    -0.21000
C772        C  0.37122191  0.60097242  0.63039278    -0.09000
C773        C  0.36558321  0.61033175  0.58200762     0.29800
C774        C  0.37564582  0.59739630  0.53835241    -0.21000
C775        C  0.39150721  0.57427804  0.54157422    -0.09000
C776        C  0.39841620  0.56654114  0.59136250     0.29800
F777        F  0.41542075  0.54634504  0.59771596    -0.19600
H778        H  0.39266329  0.57208545  0.67203491     0.18200
H779        H  0.37130274  0.60649287  0.50242245     0.18200
F780        F  0.34956968  0.63152973  0.57691253    -0.19500
C781        C  0.36074088  0.95523685  0.95166754    -0.21000
C782        C  0.34012646  0.93519012  0.99533758    -0.09000
C783        C  0.33481754  0.95729376  0.53297415     0.29800
C784        C  0.35588071  0.99571979  0.53245358    -0.21000
C785        C  0.38236917  0.51590822  0.99352518    -0.09000
C786        C  0.38072402  0.99430205  0.95015018     0.29800
F787        F  0.39313520  0.51024065  0.90366817    -0.19600
H788        H  0.35777873  0.94099601  0.91594137     0.18200
H789        H  0.34728369  0.50883657  0.56111788     0.18200
F790        F  0.30536076  0.94366155  0.56612924    -0.19500
C791        C  0.10460770  0.70322518  0.54022379    -0.21000
C792        C  0.08540893  0.66407960  0.54534357    -0.09000
C793        C  0.07942715  0.64939103  0.59535260     0.29800
C794        C  0.09014524  0.67288545  0.63779987    -0.21000
C795        C  0.10591222  0.71130310  0.63173571    -0.09000
C796        C  0.11300379  0.72626518  0.58273308     0.29800
F797        F  0.12835939  0.76338674  0.57587633    -0.19600
H798        H  0.11282870  0.71673849  0.50367135     0.18200
H799        H  0.08485115  0.66095926  0.67555768     0.18200
F800        F  0.06158040  0.61211952  0.60323845    -0.19500
C801        C  0.07642700  0.70449302  0.89361266    -0.21000
C802        C  0.10279363  0.70462279  0.85939302    -0.09000
C803        C  0.11573262  0.67984404  0.86661770     0.29800
C804        C  0.10349722  0.65630580  0.90897082    -0.21000
C805        C  0.08014811  0.65886208  0.94747046    -0.09000
C806        C  0.06531401  0.68228542  0.93705851     0.29800
F807        F  0.04206065  0.68616219  0.97056641    -0.19600
H808        H  0.06586547  0.72324805  0.88816546     0.18200
H809        H  0.11331055  0.63680598  0.91121941     0.18200
F810        F  0.14013054  0.67827411  0.83251065    -0.19500
C811        C  0.00814758  0.58613115  0.96608539    -0.21000
C812        C  0.02739398  0.61427290  0.50209621    -0.09000
C813        C  0.00576700  0.62505523  0.53295618     0.29800
C814        C  0.46794405  0.60838104  0.52765622    -0.21000
C815        C  0.44755238  0.57693069  0.99636097    -0.09000
C816        C  0.46933035  0.56627056  0.96525077     0.29800
F817        F  0.45454541  0.53774729  0.93229020    -0.19600
H818        H  0.02349841  0.57879249  0.93873044     0.18200
H819        H  0.45530221  0.62225777  0.54783552     0.18200
F820        F  0.02059108  0.65520789  0.56393284    -0.19500
C821        C  0.17435540  0.58698114  0.59712612    -0.21000
C822        C  0.17931517  0.56698096  0.55637389    -0.09000
C823        C  0.20515618  0.55480900  0.56266010     0.29800
C824        C  0.22840542  0.56676311  0.60397715    -0.21000
C825        C  0.22609152  0.59027258  0.64114401    -0.09000
C826        C  0.19778838  0.59906538  0.63834703     0.29800
F827        F  0.19281270  0.61967238  0.67512648    -0.19600
H828        H  0.15285234  0.59420324  0.59737083     0.18200
H829        H  0.24924576  0.55859533  0.60572908     0.18200
F830        F  0.21025012  0.53387026  0.52660842    -0.19500
C831        C  0.16882595  0.56647138  0.90983717    -0.21000
C832        C  0.18415830  0.57496933  0.95876271    -0.09000
C833        C  0.22274780  0.60104490  0.96103079     0.29800
C834        C  0.24476886  0.61390024  0.91668631    -0.21000
C835        C  0.22960619  0.60187024  0.86896913    -0.09000
C836        C  0.19136075  0.57850525  0.86554063     0.29800
F837        F  0.17578757  0.56776766  0.81943627    -0.19600
H838        H  0.13928910  0.54863006  0.90611729     0.18200
H839        H  0.27410322  0.63336334  0.91968589     0.18200
F840        F  0.23955240  0.61668820  0.00512415    -0.19500
C841        C  0.12933690  0.63352262  0.50259943    -0.21000
C842        C  0.09035487  0.61368676  0.00183573    -0.09000
C843        C  0.07299582  0.57444373  0.00669346     0.29800
C844        C  0.09393466  0.55645762  0.00521271    -0.21000
C845        C  0.13295312  0.57653659  0.00601736    -0.09000
C846        C  0.15001160  0.61581331  0.50550712     0.29800
F847        F  0.18717124  0.63769228  0.50841856    -0.19600
H848        H  0.14419040  0.66360561  0.50096843     0.18200
H849        H  0.07866952  0.52654743  0.00453741     0.18200
F850        F  0.03620872  0.55273135  0.01608031    -0.19500
C851        C  0.10252767  0.83388642  0.91793668    -0.21000
C852        C  0.10004052  0.84643550  0.87023753    -0.09000
C853        C  0.08591337  0.87058048  0.86679039     0.29800
C854        C  0.07522536  0.88257685  0.91100748    -0.21000
C855        C  0.08126367  0.87340951  0.96000357    -0.09000
C856        C  0.09340241  0.84689522  0.96226789     0.29800
F857        F  0.09432901  0.83106786  0.00636346    -0.19600
H858        H  0.11205142  0.81404807  0.92095557     0.18200
H859        H  0.06385782  0.90079908  0.90719725     0.18200
F860        F  0.08199050  0.88213940  0.82071765    -0.19500
C861        C  0.13396013  0.88199667  0.60500069    -0.21000
C862        C  0.10850890  0.85859348  0.64238496    -0.09000
C863        C  0.07130013  0.84927394  0.63948605     0.29800
C864        C  0.05955104  0.86090384  0.59810218    -0.21000
C865        C  0.08430174  0.88122348  0.55748801    -0.09000
C866        C  0.12231374  0.89355480  0.56359003     0.29800
F867        F  0.14807613  0.91441148  0.52734949    -0.19600
H868        H  0.16298475  0.89041797  0.60668795     0.18200
H869        H  0.03074172  0.85321436  0.59817497     0.18200
F870        F  0.04601673  0.82865823  0.67640062    -0.19500
C871        C  0.12153388  0.95391079  0.96920845    -0.21000
C872        C  0.09266946  0.93399991  0.00549522    -0.09000
C873        C  0.08818893  0.95541466  0.54470509     0.29800
C874        C  0.10873043  0.99447131  0.54391765    -0.21000
C875        C  0.13492794  0.51434157  0.00441037    -0.09000
C876        C  0.14245510  0.99259341  0.96889355     0.29800
F877        F  0.17257954  0.50744251  0.93689320    -0.19600
H878        H  0.13077841  0.93996476  0.94257826     0.18200
H879        H  0.10419413  0.50951802  0.57477364     0.18200
F880        F  0.06431397  0.93853156  0.58468059    -0.19500
C881        C  0.34505962  0.74404490  0.89404885    -0.21000
C882        C  0.37148454  0.74445566  0.85962237    -0.09000
C883        C  0.40893118  0.76988601  0.86637484     0.29800
C884        C  0.41988125  0.79363899  0.90845061    -0.21000
C885        C  0.39395943  0.79053783  0.94717987    -0.09000
C886        C  0.35587681  0.76644115  0.93736355     0.29800
F887        F  0.32888206  0.76180152  0.97160678    -0.19600
H888        H  0.31592933  0.72468903  0.88894370     0.18200
H889        H  0.44896852  0.81362774  0.91050313     0.18200
F890        F  0.43496051  0.77180293  0.83212413    -0.19500
C891        C  0.40147293  0.80043622  0.59440478    -0.21000
C892        C  0.39418492  0.78494845  0.54482492    -0.09000
C893        C  0.37786052  0.74567272  0.54075659     0.29800
C894        C  0.36411016  0.72335307  0.58397514    -0.21000
C895        C  0.36906921  0.73910743  0.63235205    -0.09000
C896        C  0.38908857  0.77780871  0.63765588     0.29800
F897        F  0.39543458  0.79367919  0.68450470    -0.19600
H898        H  0.41555448  0.83032367  0.59941493     0.18200
H899        H  0.35046827  0.69345932  0.57974377     0.18200
F900        F  0.37666491  0.72823662  0.49621783    -0.19500
C901        C  0.46813923  0.81545789  0.00210604    -0.21000
C902        C  0.44895765  0.83540340  0.00185812    -0.09000
C903        C  0.47061822  0.87456906  0.50754760     0.29800
C904        C  0.00950613  0.89244980  0.50684056    -0.21000
C905        C  0.02841839  0.87216091  0.00719522    -0.09000
C906        C  0.00631739  0.83293577  0.00571004     0.29800
F907        F  0.02149576  0.81081544  0.00804936    -0.19600
H908        H  0.45310149  0.78540551  0.99954223     0.18200
H909        H  0.02422764  0.92239923  0.50713224     0.18200
F910        F  0.45525220  0.89620079  0.51647007    -0.19500
C911        C  0.39381312  0.86269389  0.96514326    -0.21000
C912        C  0.38541444  0.83493888  0.00167848    -0.09000
C913        C  0.35319102  0.82440634  0.53265074     0.29800
C914        C  0.33246785  0.84180528  0.52828516    -0.21000
C915        C  0.34317726  0.87303948  0.99658861    -0.09000
C916        C  0.37429806  0.88214921  0.96341960     0.29800
F917        F  0.38506465  0.90754730  0.92610130    -0.19600
H918        H  0.41596659  0.86938807  0.93719182     0.18200
H919        H  0.30639650  0.82848178  0.54937300     0.18200
F920        F  0.33772136  0.79395908  0.56306635    -0.19500
C921        C  0.90579517  0.31194991  0.99872446    -0.02200
C922        C  0.57149087  0.39038835  0.50775713    -0.02200
C923        C  0.65763128  0.05797848  0.50643046    -0.02200
C924        C  0.57050967  0.13718389  0.99906539    -0.02200
C925        C  0.90430641  0.05988545  0.49341516    -0.02200
C926        C  0.81764035  0.39130072  0.49509494    -0.02200
O927        O  0.63823755  0.23577604  0.20749158    -0.85000
O928        O  0.69967212  0.30223167  0.18288559    -0.82100
C929        C  0.72046163  0.33676883  0.17805181     0.98400
O930        O  0.71992489  0.35890296  0.21135984    -0.82100
O931        O  0.65518825  0.35620758  0.18803783    -0.84700
C932        C  0.62110732  0.34364566  0.18306419     1.03000
O933        O  0.59785673  0.31847377  0.21276060    -0.77500
O934        O  0.60276204  0.25713322  0.18293733    -0.77700
C935        C  0.61607831  0.23596707  0.17623217     1.02900
O936        O  0.65231593  0.25291520  0.31274079    -0.85000
O937        O  0.71837579  0.31636932  0.28917330    -0.82100
C938        C  0.71939355  0.34016689  0.32104134     0.98500
O939        O  0.69779319  0.35287408  0.31726229    -0.82100
O940        O  0.63645006  0.35728223  0.29432602    -0.84700
C941        C  0.61223998  0.33375718  0.32486096     1.04700
O942        O  0.59898661  0.29944078  0.31738896    -0.77500
O943        O  0.59593826  0.23460008  0.28840585    -0.77700
C944        C  0.61782053  0.23203075  0.31800531     1.02900
Cr945      Cr  0.67552616  0.27878556  0.24828843     1.93700
Cr946      Cr  0.67553256  0.35265848  0.25266258     1.93200
Cr947      Cr  0.60234905  0.27910442  0.25028590     1.39100
O948        O  0.65110167  0.30348473  0.25078324    -1.22800
O949        O  0.82054812  0.19281688  0.18275784    -0.85000
O950        O  0.75499255  0.13063372  0.21150199    -0.82100
C951        C  0.75365102  0.10571098  0.18161973     0.98400
O952        O  0.77573907  0.09374076  0.18628931    -0.82100
O953        O  0.83833857  0.09227177  0.20917982    -0.84700
C954        C  0.86060491  0.11482470  0.17601013     1.03000
O955        O  0.87386548  0.14927454  0.18165306    -0.77500
O956        O  0.87721862  0.21490812  0.20802417    -0.77700
C957        C  0.85483875  0.21452999  0.17669580     1.02900
O958        O  0.83536927  0.21459748  0.28833598    -0.85000
O959        O  0.77463779  0.14927679  0.31635114    -0.82100
C960        C  0.75426887  0.11489009  0.32353509     0.98500
O961        O  0.75551590  0.09169584  0.29270716    -0.82100
O962        O  0.82156128  0.09715965  0.31537574    -0.84700
C963        C  0.85575513  0.11019348  0.31959952     1.02900
O964        O  0.87839841  0.13422687  0.28797484    -0.77500
O965        O  0.87387071  0.19670297  0.31275154    -0.77700
C966        C  0.85968244  0.21719630  0.31816265     1.02900
Cr967      Cr  0.79818153  0.17018440  0.24959029     1.93700
Cr968      Cr  0.79957092  0.09732811  0.25084844     1.93200
Cr969      Cr  0.87229769  0.17176577  0.24775984     1.39100
O970        O  0.82333754  0.14645366  0.24971162    -1.22800
C971        C  0.78322935  0.37229171  0.13680016    -0.21000
C972        C  0.74491679  0.35111019  0.13267982    -0.09000
C973        C  0.72969212  0.34232689  0.08453853     0.29800
C974        C  0.75230030  0.35450413  0.04073901    -0.21000
C975        C  0.79115680  0.37709070  0.04350266    -0.09000
C976        C  0.80620671  0.38457934  0.09302810     0.29800
F977        F  0.84335223  0.40456291  0.09877616    -0.19600
H978        H  0.79539236  0.37878291  0.17390216     0.18200
H979        H  0.73859418  0.34535160  0.00507262     0.18200
F980        F  0.69256298  0.32243069  0.07985110    -0.19500
C981        C  0.74829853  0.38220230  0.39479329    -0.21000
C982        C  0.74634664  0.35406680  0.36247560    -0.09000
C983        C  0.76952493  0.33933617  0.37126795     0.29800
C984        C  0.79293961  0.35156759  0.41267883    -0.21000
C985        C  0.79436949  0.37925070  0.44631827    -0.09000
C986        C  0.77182232  0.39475243  0.43567945     0.29800
F987        F  0.77056731  0.42052512  0.46687503    -0.19600
H988        H  0.73090986  0.39424503  0.38917071     0.18200
H989        H  0.80893041  0.33813276  0.41861638     0.18200
F990        F  0.76907203  0.31242940  0.34067683    -0.19500
C991        C  0.85600080  0.05564676  0.43331961    -0.21000
C992        C  0.89387575  0.07274963  0.44457762    -0.09000
C993        C  0.91929672  0.10230033  0.41230779     0.29800
C994        C  0.90679510  0.11367603  0.37129565    -0.21000
C995        C  0.86899112  0.09663462  0.36132829    -0.09000
C996        C  0.84373760  0.06713045  0.39271112     0.29800
F997        F  0.80683742  0.04944148  0.38496483    -0.19600
H998        H  0.83533517  0.03368038  0.45735809     0.18200
H999        H  0.92685279  0.13667957  0.34800545     0.18200
F1000       F  0.95601634  0.12188377  0.42078909    -0.19500
C1001       C  0.88754879  0.07897198  0.13480691    -0.21000
C1002       C  0.87120199  0.10095538  0.13039145    -0.09000
C1003       C  0.86555757  0.11030992  0.08200555     0.29800
C1004       C  0.87562467  0.09737836  0.03834877    -0.21000
C1005       C  0.89149574  0.07426814  0.04157275    -0.09000
C1006       C  0.89840075  0.06652818  0.09136165     0.29800
F1007       F  0.91540517  0.04633256  0.09771764    -0.19600
H1008       H  0.89264801  0.07207127  0.17203083     0.18200
H1009       H  0.87127520  0.10647011  0.00241558     0.18200
F1010       F  0.84953426  0.13149892  0.07691026    -0.19500
C1011       C  0.86074146  0.45524508  0.45166592    -0.21000
C1012       C  0.84012990  0.43519879  0.49533777    -0.09000
C1013       C  0.83480914  0.45728590  0.03297205     0.29800
C1014       C  0.85587184  0.49571318  0.03245378    -0.21000
C1015       C  0.88237378  0.01591523  0.49352242    -0.09000
C1016       C  0.88072607  0.49430976  0.45014836     0.29800
F1017       F  0.89314419  0.01025058  0.40366738    -0.19600
H1018       H  0.85777937  0.44100449  0.41594045     0.18200
H1019       H  0.84726939  0.00882543  0.06111079     0.18200
F1020       F  0.80534816  0.44365242  0.06611957    -0.19500
C1021       C  0.60459876  0.20322130  0.04022157    -0.21000
C1022       C  0.58540767  0.16407625  0.04534099    -0.09000
C1023       C  0.57943609  0.14938920  0.09535008     0.29800
C1024       C  0.59015696  0.17288416  0.13779847    -0.21000
C1025       C  0.60591670  0.21130149  0.13173323    -0.09000
C1026       C  0.61299777  0.22626198  0.08273003     0.29800
F1027       F  0.62834541  0.26338242  0.07587334    -0.19600
H1028       H  0.61281149  0.21673408  0.00366998     0.18200
H1029       H  0.58486979  0.16095838  0.17555882     0.18200
F1030       F  0.56159605  0.11211802  0.10323710    -0.19500
C1031       C  0.57643572  0.20450602  0.39361688    -0.21000
C1032       C  0.60279911  0.20462760  0.35939488    -0.09000
C1033       C  0.61573428  0.17984538  0.36661983     0.29800
C1034       C  0.60349695  0.15631005  0.40897289    -0.21000
C1035       C  0.58015303  0.15886923  0.44747350    -0.09000
C1036       C  0.56532395  0.18229789  0.43706445     0.29800
F1037       F  0.54207658  0.18618209  0.47057478    -0.19600
H1038       H  0.56587565  0.22326716  0.38817102     0.18200
H1039       H  0.61330373  0.13680812  0.41122111     0.18200
F1040       F  0.64012941  0.17827125  0.33251281    -0.19500
C1041       C  0.50815448  0.08612994  0.46609241    -0.21000
C1042       C  0.52738984  0.11426617  0.00209910    -0.09000
C1043       C  0.50576258  0.12503929  0.03297511     0.29800
C1044       C  0.96793771  0.10836313  0.02768344    -0.21000
C1045       C  0.94755880  0.07693784  0.49635460    -0.09000
C1046       C  0.96933443  0.06626639  0.46526552     0.29800
F1047       F  0.95454801  0.03772515  0.43233012    -0.19600
H1048       H  0.52350791  0.07878385  0.43874628     0.18200
H1049       H  0.95529432  0.12223406  0.04788230     0.18200
F1050       F  0.52058631  0.15518714  0.06396155    -0.19500
C1051       C  0.67434827  0.08697430  0.09712084    -0.21000
C1052       C  0.67931175  0.06697654  0.05636828    -0.09000
C1053       C  0.70515216  0.05480504  0.06265728     0.29800
C1054       C  0.72839804  0.06675855  0.10397627    -0.21000
C1055       C  0.72608297  0.09026660  0.14114254    -0.09000
C1056       C  0.69777969  0.09905787  0.13834406     0.29800
F1057       F  0.69280149  0.11966308  0.17512493    -0.19600
H1058       H  0.65284471  0.09419413  0.09736403     0.18200
H1059       H  0.74923644  0.05859274  0.10572967     0.18200
F1060       F  0.71024889  0.03386765  0.02660573    -0.19500
C1061       C  0.66882266  0.06647459  0.40984561    -0.21000
C1062       C  0.68415750  0.07497190  0.45876831    -0.09000
C1063       C  0.72274691  0.10104777  0.46103113     0.29800
C1064       C  0.74476510  0.11390361  0.41668339    -0.21000
C1065       C  0.72959808  0.10187318  0.36896811    -0.09000
C1066       C  0.69135255  0.07850841  0.36554532     0.29800
F1067       F  0.67577602  0.06777143  0.31944274    -0.19600
H1068       H  0.63928741  0.04863394  0.40613228     0.18200
H1069       H  0.77410042  0.13336638  0.41967867     0.18200
F1070       F  0.73955478  0.11669144  0.50512280    -0.19500
C1071       C  0.62933505  0.13352071  0.00259685    -0.21000
C1072       C  0.59035717  0.11369212  0.50184114    -0.09000
C1073       C  0.57299620  0.07444721  0.50671036     0.29800
C1074       C  0.59393323  0.05645741  0.50522913    -0.21000
C1075       C  0.63295347  0.07653817  0.50602678    -0.09000
C1076       C  0.65001030  0.11581073  0.00550315     0.29800
F1077       F  0.68716963  0.13768990  0.00842101    -0.19600
H1078       H  0.64418897  0.16360693  0.00097125     0.18200
H1079       H  0.57866359  0.02654017  0.50456181     0.18200
F1080       F  0.53621133  0.05273857  0.51611165    -0.19500
C1081       C  0.60252784  0.33388968  0.41793552    -0.21000
C1082       C  0.60004202  0.34643718  0.37023513    -0.09000
C1083       C  0.58591545  0.37058272  0.36678618     0.29800
C1084       C  0.57522675  0.38258073  0.41100262    -0.21000
C1085       C  0.58126370  0.37341322  0.46000020    -0.09000
C1086       C  0.59340241  0.34689873  0.46226549     0.29800
F1087       F  0.59432873  0.33107126  0.50636108    -0.19600
H1088       H  0.61205071  0.31405220  0.42095734     0.18200
H1089       H  0.56385889  0.40080318  0.40719108     0.18200
F1090       F  0.58199341  0.38214113  0.32071230    -0.19500
C1091       C  0.63396223  0.38199279  0.10499880    -0.21000
C1092       C  0.60851218  0.35859244  0.14238515    -0.09000
C1093       C  0.57130522  0.34927772  0.13949107     0.29800
C1094       C  0.55955620  0.36090865  0.09810856    -0.21000
C1095       C  0.58430561  0.38122432  0.05749102    -0.09000
C1096       C  0.62231676  0.39355240  0.06358953     0.29800
F1097       F  0.64807875  0.41440612  0.02734615    -0.19600
H1098       H  0.66298430  0.39041001  0.10668321     0.18200
H1099       H  0.53074890  0.35322335  0.09818527     0.18200
F1100       F  0.54602310  0.32866589  0.17640955    -0.19500
C1101       C  0.62152915  0.45391643  0.46921288    -0.21000
C1102       C  0.59266641  0.43400298  0.50549602    -0.09000
C1103       C  0.58819022  0.45541445  0.04470289     0.29800
C1104       C  0.60872999  0.49447057  0.04391115    -0.21000
C1105       C  0.63492855  0.01434347  0.50441658    -0.09000
C1106       C  0.64245347  0.49259697  0.46889913     0.29800
F1107       F  0.67257902  0.00744568  0.43689742    -0.19600
H1108       H  0.63076928  0.43997451  0.44258538     0.18200
H1109       H  0.60419247  0.00951737  0.07476514     0.18200
F1110       F  0.56431611  0.43853243  0.08467819    -0.19500
C1111       C  0.84505276  0.24403627  0.39405121    -0.21000
C1112       C  0.87147754  0.24444761  0.35962260    -0.09000
C1113       C  0.90892399  0.26987995  0.36637191     0.29800
C1114       C  0.91987383  0.29363484  0.40844511    -0.21000
C1115       C  0.89395416  0.29053577  0.44717640    -0.09000
C1116       C  0.85587108  0.26643564  0.43736411     0.29800
F1117       F  0.82887641  0.26179543  0.47160837    -0.19600
H1118       H  0.81592140  0.22467817  0.38894864     0.18200
H1119       H  0.94896025  0.31362453  0.41049377     0.18200
F1120       F  0.93495305  0.27179768  0.33212019    -0.19500
C1121       C  0.90148003  0.30043414  0.09440803    -0.21000
C1122       C  0.89418916  0.28494712  0.04482673    -0.09000
C1123       C  0.87786244  0.24567084  0.04075574     0.29800
C1124       C  0.86411198  0.22335056  0.08397307    -0.21000
C1125       C  0.86907085  0.23910252  0.13235063    -0.09000
C1126       C  0.88909351  0.27780369  0.13765726     0.29800
F1127       F  0.89544057  0.29367242  0.18450700    -0.19600
H1128       H  0.91556488  0.33032378  0.09942156     0.18200
H1129       H  0.85046937  0.19345728  0.07974047     0.18200
F1130       F  0.87666417  0.22823593  0.99621549    -0.19500
C1131       C  0.96813716  0.31546110  0.50209633    -0.21000
C1132       C  0.94895465  0.33540492  0.50185086    -0.09000
C1133       C  0.97062172  0.37456951  0.00754955     0.29800
C1134       C  0.50950853  0.39245000  0.00684241    -0.21000
C1135       C  0.52841474  0.37216205  0.50718905    -0.09000
C1136       C  0.50631417  0.33293740  0.50569872     0.29800
F1137       F  0.52149256  0.31081647  0.50803249    -0.19600
H1138       H  0.95310173  0.28541276  0.49953281     0.18200
H1139       H  0.52422930  0.42239979  0.00712921     0.18200
F1140       F  0.95525595  0.39620195  0.01646669    -0.19500
C1141       C  0.89381260  0.36269890  0.46514076    -0.21000
C1142       C  0.88541005  0.33494035  0.50167189    -0.09000
C1143       C  0.85319697  0.32440645  0.03265962     0.29800
C1144       C  0.83247002  0.34180183  0.02829429    -0.21000
C1145       C  0.84317782  0.37304688  0.49658817    -0.09000
C1146       C  0.87430107  0.38215842  0.46342256     0.29800
F1147       F  0.88507652  0.40756566  0.42611526    -0.19600
H1148       H  0.91596899  0.36939576  0.43719082     0.18200
H1149       H  0.80639838  0.32847767  0.04939005     0.18200
F1150       F  0.83773047  0.29396113  0.06307831    -0.19500
C1151       C  0.90579071  0.31195009  0.49872073    -0.02200
C1152       C  0.57149320  0.39038784  0.00776123    -0.02200
C1153       C  0.65763032  0.05797512  0.00642296    -0.02200
C1154       C  0.57051350  0.13719026  0.49906736    -0.02200
C1155       C  0.90430085  0.05987861  0.99341790    -0.02200
C1156       C  0.81763807  0.39129270  0.99509582    -0.02200
O1157       O  0.63823292  0.23577756  0.70749207    -0.85000
O1158       O  0.69967003  0.30223342  0.68288600    -0.82100
C1159       C  0.72045932  0.33677134  0.67805220     0.98400
O1160       O  0.71992182  0.35890451  0.71136031    -0.82100
O1161       O  0.65518469  0.35620978  0.68804037    -0.84700
C1162       C  0.62110344  0.34364734  0.68306609     1.03000
O1163       O  0.59785315  0.31847556  0.71276292    -0.77500
O1164       O  0.60275728  0.25713488  0.68293873    -0.77700
C1165       C  0.61607366  0.23596894  0.67623359     1.02900
O1166       O  0.65231062  0.25291415  0.81274172    -0.85000
O1167       O  0.71837161  0.31636764  0.78917479    -0.82100
C1168       C  0.71938955  0.34016453  0.82104376     0.98500
O1169       O  0.69779052  0.35287348  0.81726402    -0.82100
O1170       O  0.63644751  0.35728225  0.79432913    -0.84700
C1171       C  0.61223675  0.33375651  0.82486334     1.04700
O1172       O  0.59898314  0.29944071  0.81739101    -0.77500
O1173       O  0.59593308  0.23459975  0.78840741    -0.77700
C1174       C  0.61781481  0.23202912  0.81800516     1.02900
Cr1175     Cr  0.67552204  0.27878585  0.74828920     1.93700
Cr1176     Cr  0.67552948  0.35265917  0.75266459     1.93200
Cr1177     Cr  0.60234502  0.27910530  0.75028771     1.39100
O1178       O  0.65109799  0.30348541  0.75078435    -1.22800
O1179       O  0.82055041  0.19282227  0.68276381    -0.85000
O1180       O  0.75499804  0.13063504  0.71150855    -0.82100
C1181       C  0.75365935  0.10571676  0.68162073     0.98400
O1182       O  0.77575099  0.09374964  0.68628551    -0.82100
O1183       O  0.83835200  0.09228226  0.70917666    -0.84700
C1184       C  0.86062127  0.11483769  0.67601138     1.03000
O1185       O  0.87387919  0.14928683  0.68165667    -0.77500
O1186       O  0.87722293  0.21491568  0.70802515    -0.77700
C1187       C  0.85484019  0.21453664  0.67669994     1.02900
O1188       O  0.83537344  0.21460185  0.78833901    -0.85000
O1189       O  0.77464715  0.14927732  0.81635772    -0.82100
C1190       C  0.75427890  0.11488975  0.82353862     0.98500
O1191       O  0.75552578  0.09169816  0.79270572    -0.82100
O1192       O  0.82157171  0.09716358  0.81537107    -0.84700
C1193       C  0.85576666  0.11020052  0.81959842     1.02900
O1194       O  0.87841030  0.13423787  0.78798046    -0.77500
O1195       O  0.87387749  0.19671068  0.81275350    -0.77700
C1196       C  0.85968851  0.21720309  0.81816395     1.02900
Cr1197     Cr  0.79818694  0.17018737  0.74959570     1.93700
Cr1198     Cr  0.79958219  0.09733460  0.75084496     1.93200
Cr1199     Cr  0.87230679  0.17177523  0.74776263     1.39100
O1200       O  0.82334652  0.14646004  0.74971270    -1.22800
C1201       C  0.78322767  0.37228998  0.63679745    -0.21000
C1202       C  0.74491500  0.35111391  0.63267832    -0.09000
C1203       C  0.72969124  0.34234027  0.58453773     0.29800
C1204       C  0.75230021  0.35451948  0.54073862    -0.21000
C1205       C  0.79115750  0.37709893  0.54350239    -0.09000
C1206       C  0.80620594  0.38458045  0.59302691     0.29800
F1207       F  0.84335197  0.40456009  0.59877675    -0.19600
H1208       H  0.79538928  0.37877465  0.67389543     0.18200
H1209       H  0.73859448  0.34537489  0.50507483     0.18200
F1210       F  0.69256133  0.32245192  0.57984929    -0.19500
C1211       C  0.74828833  0.38219214  0.89480373    -0.21000
C1212       C  0.74634075  0.35406151  0.86247920    -0.09000
C1213       C  0.76952284  0.33933307  0.87126541     0.29800
C1214       C  0.79293921  0.35156290  0.91267536    -0.21000
C1215       C  0.79436604  0.37924257  0.94632003    -0.09000
C1216       C  0.77181353  0.39474090  0.93568890     0.29800
F1217       F  0.77055447  0.42050725  0.96689224    -0.19600
H1218       H  0.73089470  0.39423240  0.88918649     0.18200
H1219       H  0.80893474  0.33812929  0.91860788     0.18200
F1220       F  0.76907257  0.31243074  0.84066840    -0.19500
C1221       C  0.85600206  0.05562955  0.93329838    -0.21000
C1222       C  0.89387485  0.07274645  0.94457945    -0.09000
C1223       C  0.91929562  0.10231794  0.91234019     0.29800
C1224       C  0.90679752  0.11369457  0.87132796    -0.21000
C1225       C  0.86899874  0.09663765  0.86132831    -0.09000
C1226       C  0.84374494  0.06711550  0.89268374     0.29800
F1227       F  0.80684747  0.04940748  0.88490592    -0.19600
H1228       H  0.83533388  0.03364886  0.95731831     0.18200
H1229       H  0.92685152  0.13671107  0.84806643     0.18200
F1230       F  0.95600932  0.12192184  0.92085793    -0.19500
C1231       C  0.88756654  0.07898540  0.63480988    -0.21000
C1232       C  0.87122235  0.10097188  0.63039303    -0.09000
C1233       C  0.86558353  0.11033148  0.58200757     0.29800
C1234       C  0.87564590  0.09739586  0.53835251    -0.21000
C1235       C  0.89150685  0.07427749  0.54157316    -0.09000
C1236       C  0.89841611  0.06654029  0.59136148     0.29800
F1237       F  0.91542091  0.04634455  0.59771516    -0.19600
H1238       H  0.89266447  0.07208313  0.67203602     0.18200
H1239       H  0.87130253  0.10649206  0.50242265     0.18200
F1240       F  0.84957008  0.13152946  0.57691289    -0.19500
C1241       C  0.86074065  0.45523643  0.95166807    -0.21000
C1242       C  0.84012645  0.43519026  0.99533842    -0.09000
C1243       C  0.83481717  0.45729435  0.53297565     0.29800
C1244       C  0.85588016  0.49572159  0.53245718    -0.21000
C1245       C  0.88236878  0.01590788  0.99352389    -0.09000
C1246       C  0.88072431  0.49430163  0.95014966     0.29800
F1247       F  0.89313566  0.01024145  0.90366759    -0.19600
H1248       H  0.85777687  0.44099469  0.91594096     0.18200
H1249       H  0.84728312  0.00883530  0.56111800     0.18200
F1250       F  0.80536024  0.44366173  0.56613063    -0.19500
C1251       C  0.60460874  0.20322697  0.54022193    -0.21000
C1252       C  0.58540966  0.16408114  0.54534294    -0.09000
C1253       C  0.57942764  0.14939201  0.59535242     0.29800
C1254       C  0.59014570  0.17288644  0.63779939    -0.21000
C1255       C  0.60591241  0.21130372  0.63173565    -0.09000
C1256       C  0.61300429  0.22626615  0.58273264     0.29800
F1257       F  0.62835965  0.26338738  0.57587646    -0.19600
H1258       H  0.61283015  0.21674177  0.50366739     0.18200
H1259       H  0.58485174  0.16096048  0.67555760     0.18200
F1260       F  0.56158097  0.11212071  0.60323811    -0.19500
C1261       C  0.57642641  0.20449346  0.89361288    -0.21000
C1262       C  0.60279330  0.20462316  0.85939329    -0.09000
C1263       C  0.61573208  0.17984489  0.86661788     0.29800
C1264       C  0.60349661  0.15630759  0.90897062    -0.21000
C1265       C  0.58014774  0.15886256  0.94747029    -0.09000
C1266       C  0.56531378  0.18228553  0.93705875     0.29800
F1267       F  0.54206011  0.18616225  0.97056711    -0.19600
H1268       H  0.56586475  0.22324755  0.88816605     0.18200
H1269       H  0.61330896  0.13680987  0.91121858     0.18200
F1270       F  0.64013017  0.17827442  0.83251088    -0.19500
C1271       C  0.50814772  0.08613138  0.96608548    -0.21000
C1272       C  0.52739474  0.11427398  0.50209727    -0.09000
C1273       C  0.50576740  0.12505566  0.53295730     0.29800
C1274       C  0.96794373  0.10838168  0.52765806    -0.21000
C1275       C  0.94755326  0.07693034  0.99636006    -0.09000
C1276       C  0.96933096  0.06627065  0.96525054     0.29800
F1277       F  0.95454606  0.03774700  0.93228924    -0.19600
H1278       H  0.52349878  0.07879313  0.93873070     0.18200
H1279       H  0.95530206  0.12225825  0.54783705     0.18200
F1280       F  0.52059135  0.15520864  0.56393368    -0.19500
C1281       C  0.67435530  0.08698099  0.59712558    -0.21000
C1282       C  0.67931511  0.06698110  0.55637349    -0.09000
C1283       C  0.70515604  0.05480900  0.56265986     0.29800
C1284       C  0.72840527  0.06676301  0.60397703    -0.21000
C1285       C  0.72609138  0.09027257  0.64114374    -0.09000
C1286       C  0.69778824  0.09906537  0.63834650     0.29800
F1287       F  0.69281255  0.11967231  0.67512596    -0.19600
H1288       H  0.65285196  0.09420236  0.59737023     0.18200
H1289       H  0.74924547  0.05859501  0.60572903     0.18200
F1290       F  0.71025006  0.03387015  0.52660850    -0.19500
C1291       C  0.66882673  0.06647170  0.90983834    -0.21000
C1292       C  0.68415826  0.07496899  0.95876354    -0.09000
C1293       C  0.72274853  0.10104551  0.96103214     0.29800
C1294       C  0.74477129  0.11390188  0.91668764    -0.21000
C1295       C  0.72960707  0.10187079  0.86897000    -0.09000
C1296       C  0.69136090  0.07850536  0.86554165     0.29800
F1297       F  0.67578850  0.06776821  0.81943753    -0.19600
H1298       H  0.63928952  0.04862963  0.90611928     0.18200
H1299       H  0.77410905  0.13336740  0.91968823     0.18200
F1300       F  0.73955317  0.11668882  0.00512512    -0.19500
C1301       C  0.62933858  0.13352610  0.50259925    -0.21000
C1302       C  0.59035415  0.11368641  0.00183495    -0.09000
C1303       C  0.57299449  0.07444164  0.00669332     0.29800
C1304       C  0.59393282  0.05645304  0.00521262    -0.21000
C1305       C  0.63295269  0.07653503  0.00601709    -0.09000
C1306       C  0.65001239  0.11581432  0.50550681     0.29800
F1307       F  0.68717190  0.13769312  0.50841855    -0.19600
H1308       H  0.64419489  0.16361458  0.50096847     0.18200
H1309       H  0.57866522  0.02653634  0.00453809     0.18200
F1310       F  0.53620804  0.05273006  0.01608055    -0.19500
C1311       C  0.60252638  0.33388871  0.91793628    -0.21000
C1312       C  0.60003972  0.34643625  0.87023729    -0.09000
C1313       C  0.58591304  0.37058154  0.86678997     0.29800
C1314       C  0.57522485  0.38257962  0.91100724    -0.21000
C1315       C  0.58126358  0.37341113  0.96000377    -0.09000
C1316       C  0.59340185  0.34689637  0.96226742     0.29800
F1317       F  0.59432868  0.33106873  0.00636236    -0.19600
H1318       H  0.61204954  0.31405239  0.92095490     0.18200
H1319       H  0.56385670  0.40080341  0.90719699     0.18200
F1320       F  0.58199012  0.38214021  0.82071670    -0.19500
C1321       C  0.63395904  0.38199604  0.60500134    -0.21000
C1322       C  0.60850790  0.35859302  0.64238532    -0.09000
C1323       C  0.57129970  0.34927379  0.63948576     0.29800
C1324       C  0.55955157  0.36090411  0.59810149    -0.21000
C1325       C  0.58430209  0.38122373  0.55748769    -0.09000
C1326       C  0.62231354  0.39355460  0.56359030     0.29800
F1327       F  0.64807664  0.41441142  0.52735005    -0.19600
H1328       H  0.66298248  0.39041638  0.60668892     0.18200
H1329       H  0.53074381  0.35321570  0.59817397     0.18200
F1330       F  0.54601608  0.32865802  0.67640042    -0.19500
C1331       C  0.62153349  0.45391261  0.96920990    -0.21000
C1332       C  0.59266947  0.43400139  0.00549564    -0.09000
C1333       C  0.58818855  0.45541438  0.54470492     0.29800
C1334       C  0.60873019  0.49447107  0.54391807    -0.21000
C1335       C  0.63492799  0.01434024  0.00440997    -0.09000
C1336       C  0.64245519  0.49259431  0.96889398     0.29800
F1337       F  0.67257955  0.00744158  0.93689232    -0.19600
H1338       H  0.63077682  0.43996779  0.94258029     0.18200
H1339       H  0.60419353  0.00952010  0.57477627     0.18200
F1340       F  0.56431371  0.43853123  0.58468039    -0.19500
C1341       C  0.84505699  0.24404282  0.89404823    -0.21000
C1342       C  0.87148318  0.24445441  0.85962173    -0.09000
C1343       C  0.90893040  0.26988502  0.86637382     0.29800
C1344       C  0.91988046  0.29363782  0.90844887    -0.21000
C1345       C  0.89395994  0.29053831  0.94717892    -0.09000
C1346       C  0.85587611  0.26644050  0.93736335     0.29800
F1347       F  0.82888184  0.26180138  0.97160684    -0.19600
H1348       H  0.81592359  0.22468459  0.88894256     0.18200
H1349       H  0.94896834  0.31362622  0.91050027     0.18200
F1350       F  0.93495926  0.27180183  0.83212341    -0.19500
C1351       C  0.90147363  0.30043773  0.59440515    -0.21000
C1352       C  0.89418474  0.28494848  0.54482517    -0.09000
C1353       C  0.87786093  0.24567398  0.54075824     0.29800
C1354       C  0.86411189  0.22335782  0.58397742    -0.21000
C1355       C  0.86906977  0.23910929  0.63235354    -0.09000
C1356       C  0.88908890  0.27780936  0.63765667     0.29800
F1357       F  0.89543542  0.29368093  0.68450558    -0.19600
H1358       H  0.91555518  0.33032561  0.59941536     0.18200
H1359       H  0.85047120  0.19346921  0.57974774     0.18200
F1360       F  0.87666483  0.22823719  0.49621970    -0.19500
C1361       C  0.96814128  0.31546164  0.00210508    -0.21000
C1362       C  0.94895916  0.33540539  0.00185589    -0.09000
C1363       C  0.97061706  0.37456907  0.50754783     0.29800
C1364       C  0.50950562  0.39244991  0.50684072    -0.21000
C1365       C  0.52841742  0.37216191  0.00719552    -0.09000
C1366       C  0.50631723  0.33293756  0.00570993     0.29800
F1367       F  0.52149553  0.31081669  0.00804931    -0.19600
H1368       H  0.95310621  0.28541421  0.99954239     0.18200
H1369       H  0.52422701  0.42239997  0.50713271     0.18200
F1370       F  0.95525112  0.39620072  0.51647032    -0.19500
C1371       C  0.89381366  0.36269550  0.96514147    -0.21000
C1372       C  0.88541489  0.33494028  0.00167667    -0.09000
C1373       C  0.85319027  0.32440576  0.53265111     0.29800
C1374       C  0.83246568  0.34180386  0.52828614    -0.21000
C1375       C  0.84317686  0.37304014  0.99658858    -0.09000
C1376       C  0.87429788  0.38215028  0.96341903     0.29800
F1377       F  0.88506466  0.40754824  0.92610082    -0.19600
H1378       H  0.91596846  0.36939150  0.93718871     0.18200
H1379       H  0.80639239  0.32847942  0.54937653     0.18200
F1380       F  0.83772116  0.29395858  0.56306670    -0.19500
C1381       C  0.90579490  0.81194886  0.99872610    -0.02200
C1382       C  0.57149117  0.89038844  0.50775730    -0.02200
C1383       C  0.65763163  0.55797859  0.50643106    -0.02200
C1384       C  0.57050990  0.63718486  0.99906583    -0.02200
C1385       C  0.90430682  0.55988574  0.49341609    -0.02200
C1386       C  0.81763974  0.89130050  0.49509532    -0.02200
O1387       O  0.63823729  0.73577614  0.20749173    -0.85000
O1388       O  0.69967216  0.80223177  0.18288548    -0.82100
C1389       C  0.72046197  0.83676873  0.17805185     0.98400
O1390       O  0.71992487  0.85890301  0.21135980    -0.82100
O1391       O  0.65518816  0.85620761  0.18803794    -0.84700
C1392       C  0.62110709  0.84364556  0.18306455     1.03000
O1393       O  0.59785668  0.81847372  0.21276086    -0.77500
O1394       O  0.60276194  0.75713339  0.18293727    -0.77700
C1395       C  0.61607812  0.73596728  0.17623211     1.02900
O1396       O  0.65231622  0.75291545  0.31274097    -0.85000
O1397       O  0.71837586  0.81636913  0.28917297    -0.82100
C1398       C  0.71939336  0.84016683  0.32104107     0.98500
O1399       O  0.69779311  0.85287378  0.31726182    -0.82100
O1400       O  0.63644986  0.85728204  0.29432618    -0.84700
C1401       C  0.61223941  0.83375698  0.32486117     1.04700
O1402       O  0.59898633  0.79944076  0.31738954    -0.77500
O1403       O  0.59593849  0.73459994  0.28840628    -0.77700
C1404       C  0.61782070  0.73203046  0.31800502     1.02900
Cr1405     Cr  0.67552605  0.77878562  0.24828830     1.93700
Cr1406     Cr  0.67553237  0.85265836  0.25266254     1.93200
Cr1407     Cr  0.60234892  0.77910434  0.25028614     1.39100
O1408       O  0.65110152  0.80348473  0.25078319    -1.22800
O1409       O  0.82054744  0.69281621  0.18275851    -0.85000
O1410       O  0.75499240  0.63063366  0.21150179    -0.82100
C1411       C  0.75365035  0.60571124  0.18161968     0.98400
O1412       O  0.77573871  0.59374061  0.18628885    -0.82100
O1413       O  0.83833829  0.59227197  0.20918028    -0.84700
C1414       C  0.86060460  0.61482451  0.17601103     1.03000
O1415       O  0.87386547  0.64927473  0.18165343    -0.77500
O1416       O  0.87721826  0.71490761  0.20802446    -0.77700
C1417       C  0.85483874  0.71452909  0.17669590     1.02900
O1418       O  0.83536875  0.71459752  0.28833531    -0.85000
O1419       O  0.77463808  0.64927715  0.31635075    -0.82100
C1420       C  0.75426916  0.61489001  0.32353511     0.98500
O1421       O  0.75551613  0.59169608  0.29270713    -0.82100
O1422       O  0.82156107  0.59715951  0.31537605    -0.84700
C1423       C  0.85575584  0.61019347  0.31959991     1.02900
O1424       O  0.87839851  0.63422639  0.28797633    -0.77500
O1425       O  0.87387034  0.69670319  0.31275136    -0.77700
C1426       C  0.85968144  0.71719601  0.31816281     1.02900
Cr1427     Cr  0.79818129  0.67018436  0.24959012     1.93700
Cr1428     Cr  0.79957091  0.59732823  0.25084838     1.93200
Cr1429     Cr  0.87229780  0.67176582  0.24776022     1.39100
O1430       O  0.82333755  0.64645378  0.24971154    -1.22800
C1431       C  0.78323038  0.87229210  0.13679988    -0.21000
C1432       C  0.74491750  0.85111038  0.13268033    -0.09000
C1433       C  0.72969200  0.84232663  0.08453844     0.29800
C1434       C  0.75229942  0.85450331  0.04073748    -0.21000
C1435       C  0.79115632  0.87709007  0.04350108    -0.09000
C1436       C  0.80620709  0.88457916  0.09302706     0.29800
F1437       F  0.84335225  0.90456288  0.09877475    -0.19600
H1438       H  0.79539524  0.87878468  0.17390313     0.18200
H1439       H  0.73859172  0.84535059  0.00506879     0.18200
F1440       F  0.69256318  0.82243071  0.07985197    -0.19500
C1441       C  0.74829826  0.88220224  0.39479280    -0.21000
C1442       C  0.74634641  0.85406689  0.36247538    -0.09000
C1443       C  0.76952475  0.83933650  0.37126834     0.29800
C1444       C  0.79293958  0.85156787  0.41267949    -0.21000
C1445       C  0.79436883  0.87925083  0.44631817    -0.09000
C1446       C  0.77182171  0.89475243  0.43567900     0.29800
F1447       F  0.77056707  0.92052503  0.46687475    -0.19600
H1448       H  0.73091044  0.89424462  0.38917023     0.18200
H1449       H  0.80893080  0.83813333  0.41861796     0.18200
F1450       F  0.76907235  0.81242964  0.34067764    -0.19500
C1451       C  0.85599848  0.55564425  0.43332332    -0.21000
C1452       C  0.89387517  0.57274889  0.44457908    -0.09000
C1453       C  0.91929547  0.60229905  0.41230911     0.29800
C1454       C  0.90679283  0.61367307  0.37129909    -0.21000
C1455       C  0.86899012  0.59663332  0.36132989    -0.09000
C1456       C  0.84373677  0.56712949  0.39271262     0.29800
F1457       F  0.80683627  0.54944046  0.38496576    -0.19600
H1458       H  0.83533136  0.53367596  0.45736387     0.18200
H1459       H  0.92684847  0.63667385  0.34801189     0.18200
F1460       F  0.95601494  0.62188271  0.42078972    -0.19500
C1461       C  0.88754881  0.57897228  0.13480843    -0.21000
C1462       C  0.87120202  0.60095570  0.13039084    -0.09000
C1463       C  0.86555835  0.61030896  0.08200715     0.29800
C1464       C  0.87562574  0.59737597  0.03835553    -0.21000
C1465       C  0.89149662  0.57426755  0.04157658    -0.09000
C1466       C  0.89840163  0.56652882  0.09136305     0.29800
F1467       F  0.91540603  0.54633199  0.09772012    -0.19600
H1468       H  0.89264609  0.57207235  0.17202927     0.18200
H1469       H  0.87127589  0.60646278  0.00243208     0.18200
F1470       F  0.84953471  0.63149830  0.07690986    -0.19500
C1471       C  0.86074058  0.95524355  0.45166369    -0.21000
C1472       C  0.84012957  0.93519818  0.49533721    -0.09000
C1473       C  0.83480870  0.95728499  0.03297149     0.29800
C1474       C  0.85587049  0.99571208  0.03245348    -0.21000
C1475       C  0.88237459  0.51591555  0.49352330    -0.09000
C1476       C  0.88072562  0.99430905  0.45014729     0.29800
F1477       F  0.89314411  0.51025095  0.40366799    -0.19600
H1478       H  0.85777688  0.94100131  0.41593583     0.18200
H1479       H  0.84727159  0.50882848  0.06111195     0.18200
F1480       F  0.80534736  0.94365082  0.06611898    -0.19500
C1481       C  0.60459876  0.70322139  0.04022188    -0.21000
C1482       C  0.58540757  0.66407636  0.04534114    -0.09000
C1483       C  0.57943590  0.64938902  0.09535038     0.29800
C1484       C  0.59015697  0.67288416  0.13779876    -0.21000
C1485       C  0.60591654  0.71130154  0.13173334    -0.09000
C1486       C  0.61299769  0.72626210  0.08273009     0.29800
F1487       F  0.62834545  0.76338257  0.07587324    -0.19600
H1488       H  0.61281185  0.71673416  0.00367035     0.18200
H1489       H  0.58487040  0.66095859  0.17555948     0.18200
F1490       F  0.56159597  0.61211765  0.10323727    -0.19500
C1491       C  0.57643685  0.70450402  0.39361709    -0.21000
C1492       C  0.60279966  0.70462672  0.35939493    -0.09000
C1493       C  0.61573469  0.67984508  0.36661982     0.29800
C1494       C  0.60349744  0.65630927  0.40897315    -0.21000
C1495       C  0.58015286  0.65886840  0.44747377    -0.09000
C1496       C  0.56532442  0.68229699  0.43706440     0.29800
F1497       F  0.54207704  0.68618191  0.47057457    -0.19600
H1498       H  0.56587834  0.72326334  0.38817159     0.18200
H1499       H  0.61330403  0.63680762  0.41122099     0.18200
F1500       F  0.64013009  0.67827089  0.33251231    -0.19500
C1501       C  0.50815390  0.58612869  0.46609070    -0.21000
C1502       C  0.52739059  0.61426630  0.00209824    -0.09000
C1503       C  0.50576217  0.62503994  0.03297527     0.29800
C1504       C  0.96793743  0.60836366  0.02768390    -0.21000
C1505       C  0.94755886  0.57693825  0.49635419    -0.09000
C1506       C  0.96933441  0.56626608  0.46526364     0.29800
F1507       F  0.95454762  0.53772446  0.43232913    -0.19600
H1508       H  0.52350720  0.57878106  0.43874390     0.18200
H1509       H  0.95529440  0.62223456  0.04788191     0.18200
F1510       F  0.52058577  0.65518691  0.06396140    -0.19500
C1511       C  0.67434634  0.58697489  0.09712053    -0.21000
C1512       C  0.67931101  0.56697719  0.05636778    -0.09000
C1513       C  0.70515198  0.55480485  0.06265705     0.29800
C1514       C  0.72839782  0.56675844  0.10397620    -0.21000
C1515       C  0.72608312  0.59026651  0.14114262    -0.09000
C1516       C  0.69777886  0.59905831  0.13834432     0.29800
F1517       F  0.69280109  0.61966326  0.17512480    -0.19600
H1518       H  0.65283899  0.59419556  0.09736322     0.18200
H1519       H  0.74923802  0.55859166  0.10572969     0.18200
F1520       F  0.71024846  0.53386808  0.02660600    -0.19500
C1521       C  0.66882372  0.56647502  0.40984608    -0.21000
C1522       C  0.68415785  0.57497195  0.45876894    -0.09000
C1523       C  0.72274811  0.60104853  0.46103181     0.29800
C1524       C  0.74476778  0.61390543  0.41668375    -0.21000
C1525       C  0.72959929  0.60187391  0.36896819    -0.09000
C1526       C  0.69135298  0.57850856  0.36554556     0.29800
F1527       F  0.67577666  0.56777173  0.31944359    -0.19600
H1528       H  0.63928755  0.54863349  0.40613274     0.18200
H1529       H  0.77410657  0.63337104  0.41967923     0.18200
F1530       F  0.73955544  0.61669193  0.50512332    -0.19500
C1531       C  0.62933631  0.63352209  0.00259699    -0.21000
C1532       C  0.59035621  0.61369049  0.50184120    -0.09000
C1533       C  0.57299610  0.57444686  0.50671006     0.29800
C1534       C  0.59393289  0.55645631  0.50522921    -0.21000
C1535       C  0.63295365  0.57653879  0.50602708    -0.09000
C1536       C  0.65001044  0.61581062  0.00550271     0.29800
F1537       F  0.68717058  0.63769032  0.00842099    -0.19600
H1538       H  0.64419030  0.66360689  0.00097180     0.18200
H1539       H  0.57866364  0.52653956  0.50456143     0.18200
F1540       F  0.53621056  0.55273742  0.51611173    -0.19500
C1541       C  0.60252764  0.83389048  0.41793540    -0.21000
C1542       C  0.60004171  0.84643713  0.37023482    -0.09000
C1543       C  0.58591509  0.87058334  0.36678548     0.29800
C1544       C  0.57522554  0.88258235  0.41100206    -0.21000
C1545       C  0.58126315  0.87341371  0.46000015    -0.09000
C1546       C  0.59340220  0.84689888  0.46226531     0.29800
F1547       F  0.59432867  0.83107190  0.50636039    -0.19600
H1548       H  0.61205112  0.81405305  0.42095730     0.18200
H1549       H  0.56385620  0.90080724  0.40719004     0.18200
F1550       F  0.58199324  0.88214162  0.32071164    -0.19500
C1551       C  0.63396186  0.88199232  0.10499952    -0.21000
C1552       C  0.60851174  0.85859221  0.14238582    -0.09000
C1553       C  0.57130479  0.84927748  0.13949199     0.29800
C1554       C  0.55955575  0.86090813  0.09810967    -0.21000
C1555       C  0.58430496  0.88122350  0.05749189    -0.09000
C1556       C  0.62231627  0.89355198  0.06359023     0.29800
F1557       F  0.64807843  0.91440575  0.02734663    -0.19600
H1558       H  0.66298395  0.89040894  0.10668436     0.18200
H1559       H  0.53074858  0.85322193  0.09818657     0.18200
F1560       F  0.54602278  0.82866551  0.17641038    -0.19500
C1561       C  0.62152934  0.95391648  0.46921266    -0.21000
C1562       C  0.59266668  0.93400325  0.50549614    -0.09000
C1563       C  0.58818992  0.95541323  0.04470247     0.29800
C1564       C  0.60873010  0.99446859  0.04390983    -0.21000
C1565       C  0.63492870  0.51434342  0.50441731    -0.09000
C1566       C  0.64245364  0.99259701  0.46889877     0.29800
F1567       F  0.67257878  0.50744560  0.43689784    -0.19600
H1568       H  0.63076929  0.93997461  0.44258496     0.18200
H1569       H  0.60419199  0.50952129  0.07476945     0.18200
F1570       F  0.56431569  0.93853179  0.08467835    -0.19500
C1571       C  0.84504927  0.74403400  0.39405137    -0.21000
C1572       C  0.87147562  0.74444656  0.35962262    -0.09000
C1573       C  0.90892272  0.76987941  0.36637184     0.29800
C1574       C  0.91987270  0.79363409  0.40844461    -0.21000
C1575       C  0.89395362  0.79053546  0.44717615    -0.09000
C1576       C  0.85586972  0.76643487  0.43736420     0.29800
F1577       F  0.82887603  0.76179540  0.47160901    -0.19600
H1578       H  0.81591496  0.72467384  0.38894897     0.18200
H1579       H  0.94895987  0.81362363  0.41049340     0.18200
F1580       F  0.93495149  0.77179693  0.33212062    -0.19500
C1581       C  0.90147758  0.80042887  0.09440758    -0.21000
C1582       C  0.89418785  0.78494485  0.04482719    -0.09000
C1583       C  0.87786098  0.74566828  0.04075515     0.29800
C1584       C  0.86410926  0.72334468  0.08397265    -0.21000
C1585       C  0.86907002  0.73910048  0.13235064    -0.09000
C1586       C  0.88909280  0.77780192  0.13765674     0.29800
F1587       F  0.89543978  0.79367091  0.18450558    -0.19600
H1588       H  0.91556103  0.83031493  0.09942076     0.18200
H1589       H  0.85046422  0.69344621  0.07973995     0.18200
F1590       F  0.87666351  0.72823392  0.99621424    -0.19500
C1591       C  0.96813713  0.81546116  0.50209650    -0.21000
C1592       C  0.94895481  0.83540498  0.50185067    -0.09000
C1593       C  0.97062187  0.87456898  0.00755004     0.29800
C1594       C  0.50950810  0.89244867  0.00684249    -0.21000
C1595       C  0.52841495  0.87216188  0.50718957    -0.09000
C1596       C  0.50631464  0.83293743  0.50569906     0.29800
F1597       F  0.52149288  0.81081635  0.50803251    -0.19600
H1598       H  0.95310133  0.78541328  0.49953290     0.18200
H1599       H  0.52422926  0.92239896  0.00713036     0.18200
F1600       F  0.95525599  0.89620075  0.01646656    -0.19500
C1601       C  0.89381116  0.86269869  0.46514252    -0.21000
C1602       C  0.88540945  0.83494023  0.50167226    -0.09000
C1603       C  0.85319699  0.82440606  0.03266047     0.29800
C1604       C  0.83246978  0.84180130  0.02829465    -0.21000
C1605       C  0.84317851  0.87304719  0.49658832    -0.09000
C1606       C  0.87430070  0.88215833  0.46342415     0.29800
F1607       F  0.88507651  0.90756559  0.42611569    -0.19600
H1608       H  0.91596367  0.86939459  0.43719561     0.18200
H1609       H  0.80639827  0.82847723  0.04939067     0.18200
F1610       F  0.83773011  0.79396056  0.06307897    -0.19500
C1611       C  0.90579058  0.81194974  0.49871999    -0.02200
C1612       C  0.57149243  0.89038606  0.00776126    -0.02200
C1613       C  0.65763021  0.55797516  0.00642225    -0.02200
C1614       C  0.57051288  0.63718920  0.49906747    -0.02200
C1615       C  0.90430099  0.55987865  0.99341839    -0.02200
C1616       C  0.81763806  0.89129217  0.99509500    -0.02200
O1617       O  0.63823305  0.73577728  0.70749226    -0.85000
O1618       O  0.69967004  0.80223319  0.68288572    -0.82100
C1619       C  0.72045954  0.83677076  0.67805207     0.98400
O1620       O  0.71992191  0.85890424  0.71136040    -0.82100
O1621       O  0.65518523  0.85621032  0.68804007    -0.84700
C1622       C  0.62110366  0.84364755  0.68306565     1.03000
O1623       O  0.59785365  0.81847582  0.71276224    -0.77500
O1624       O  0.60275750  0.75713468  0.68293885    -0.77700
C1625       C  0.61607364  0.73596844  0.67623400     1.02900
O1626       O  0.65231081  0.75291417  0.81274187    -0.85000
O1627       O  0.71837172  0.81636733  0.78917410    -0.82100
C1628       C  0.71938943  0.84016412  0.82104317     0.98500
O1629       O  0.69779062  0.85287317  0.81726354    -0.82100
O1630       O  0.63644782  0.85728226  0.79432913    -0.84700
C1631       C  0.61223766  0.83375659  0.82486340     1.04700
O1632       O  0.59898348  0.79944043  0.81739024    -0.77500
O1633       O  0.59593321  0.73459959  0.78840783    -0.77700
C1634       C  0.61781521  0.73202873  0.81800516     1.02900
Cr1635     Cr  0.67552206  0.77878564  0.74828905     1.93700
Cr1636     Cr  0.67552972  0.85265923  0.75266440     1.93200
Cr1637     Cr  0.60234527  0.77910531  0.75028744     1.39100
O1638       O  0.65109817  0.80348542  0.75078420    -1.22800
O1639       O  0.82054974  0.69282173  0.68276400    -0.85000
O1640       O  0.75499801  0.63063503  0.71150868    -0.82100
C1641       C  0.75365949  0.60571681  0.68162082     0.98400
O1642       O  0.77575120  0.59374983  0.68628555    -0.82100
O1643       O  0.83835208  0.59228250  0.70917663    -0.84700
C1644       C  0.86062083  0.61483788  0.67601126     1.03000
O1645       O  0.87387920  0.64928708  0.68165676    -0.77500
O1646       O  0.87722239  0.71491533  0.70802495    -0.77700
C1647       C  0.85484002  0.71453562  0.67669885     1.02900
O1648       O  0.83537358  0.71460230  0.78833976    -0.85000
O1649       O  0.77464717  0.64927739  0.81635778    -0.82100
C1650       C  0.75427873  0.61488967  0.82353823     0.98500
O1651       O  0.75552584  0.59169824  0.79270553    -0.82100
O1652       O  0.82157130  0.59716313  0.81537178    -0.84700
C1653       C  0.85576634  0.61020000  0.81959929     1.02900
O1654       O  0.87840985  0.63423743  0.78798136    -0.77500
O1655       O  0.87387754  0.69671090  0.81275365    -0.77700
C1656       C  0.85968889  0.71720391  0.81816372     1.02900
Cr1657     Cr  0.79818682  0.67018743  0.74959606     1.93700
Cr1658     Cr  0.79958221  0.59733464  0.75084509     1.93200
Cr1659     Cr  0.87230664  0.67177521  0.74776284     1.39100
O1660       O  0.82334642  0.64646009  0.74971288    -1.22800
C1661       C  0.78322857  0.87229061  0.63679778    -0.21000
C1662       C  0.74491556  0.85111394  0.63267846    -0.09000
C1663       C  0.72969141  0.84234027  0.58453759     0.29800
C1664       C  0.75230043  0.85451950  0.54073880    -0.21000
C1665       C  0.79115745  0.87709899  0.54350182    -0.09000
C1666       C  0.80620637  0.88458073  0.59302648     0.29800
F1667       F  0.84335234  0.90456041  0.59877636    -0.19600
H1668       H  0.79539168  0.87877679  0.67389681     0.18200
H1669       H  0.73859484  0.84537473  0.50507509     0.18200
F1670       F  0.69256164  0.82245197  0.57984947    -0.19500
C1671       C  0.74828855  0.88219118  0.89480284    -0.21000
C1672       C  0.74634097  0.85406089  0.86247871    -0.09000
C1673       C  0.76952260  0.83933308  0.87126505     0.29800
C1674       C  0.79293846  0.85156333  0.91267458    -0.21000
C1675       C  0.79436543  0.87924243  0.94631912    -0.09000
C1676       C  0.77181331  0.89474026  0.93568809     0.29800
F1677       F  0.77055400  0.92050701  0.96689136    -0.19600
H1678       H  0.73089580  0.89423020  0.88918540     0.18200
H1679       H  0.80893236  0.83813076  0.91860647     0.18200
F1680       F  0.76907254  0.81243054  0.84066822    -0.19500
C1681       C  0.85600062  0.55562785  0.93330214    -0.21000
C1682       C  0.89387452  0.57274591  0.94458140    -0.09000
C1683       C  0.91929506  0.60231751  0.91234078     0.29800
C1684       C  0.90679682  0.61369361  0.87132913    -0.21000
C1685       C  0.86899850  0.59663719  0.86132936    -0.09000
C1686       C  0.84374446  0.56711474  0.89268566     0.29800
F1687       F  0.80684723  0.54940685  0.88490681    -0.19600
H1688       H  0.83533157  0.53364551  0.95732476     0.18200
H1689       H  0.92685081  0.63670945  0.84806789     0.18200
F1690       F  0.95600829  0.62192103  0.92085809    -0.19500
C1691       C  0.88756605  0.57898641  0.63480968    -0.21000
C1692       C  0.87122178  0.60097231  0.63039290    -0.09000
C1693       C  0.86558309  0.61033176  0.58200773     0.29800
C1694       C  0.87564580  0.59739638  0.53835248    -0.21000
C1695       C  0.89150722  0.57427817  0.54157417    -0.09000
C1696       C  0.89841620  0.56654124  0.59136234     0.29800
F1697       F  0.91542074  0.54634519  0.59771581    -0.19600
H1698       H  0.89266360  0.57208541  0.67203507     0.18200
H1699       H  0.87130270  0.60649294  0.50242240     0.18200
F1700       F  0.84956960  0.63152971  0.57691269    -0.19500
C1701       C  0.86074084  0.95523687  0.95166773    -0.21000
C1702       C  0.84012624  0.93519017  0.99533756    -0.09000
C1703       C  0.83481682  0.95729384  0.53297531     0.29800
C1704       C  0.85587963  0.99572066  0.53245611    -0.21000
C1705       C  0.88237008  0.51590788  0.99352437    -0.09000
C1706       C  0.88072395  0.99430203  0.95015017     0.29800
F1707       F  0.89313531  0.51024065  0.90366708    -0.19600
H1708       H  0.85777854  0.94099608  0.91594158     0.18200
H1709       H  0.84728374  0.50883667  0.56111888     0.18200
F1710       F  0.80536014  0.94366114  0.56613004    -0.19500
C1711       C  0.60460761  0.70322517  0.54022385    -0.21000
C1712       C  0.58540866  0.66407957  0.54534369    -0.09000
C1713       C  0.57942707  0.64939103  0.59535266     0.29800
C1714       C  0.59014521  0.67288545  0.63779991    -0.21000
C1715       C  0.60591221  0.71130311  0.63173573    -0.09000
C1716       C  0.61300377  0.72626519  0.58273311     0.29800
F1717       F  0.62835934  0.76338675  0.57587635    -0.19600
H1718       H  0.61282869  0.71673852  0.50367142     0.18200
H1719       H  0.58485108  0.66095927  0.67555770     0.18200
F1720       F  0.56158037  0.61211953  0.60323848    -0.19500
C1721       C  0.57642707  0.70449299  0.89361256    -0.21000
C1722       C  0.60279365  0.70462287  0.85939266    -0.09000
C1723       C  0.61573288  0.67984418  0.86661714     0.29800
C1724       C  0.60349768  0.65630610  0.90897058    -0.21000
C1725       C  0.58014839  0.65886228  0.94747036    -0.09000
C1726       C  0.56531403  0.68228551  0.93705851     0.29800
F1727       F  0.54206070  0.68616221  0.97056652    -0.19600
H1728       H  0.56586540  0.72324814  0.88816531     0.18200
H1729       H  0.61331173  0.63680635  0.91121939     0.18200
F1730       F  0.64013084  0.67827420  0.83251011    -0.19500
C1731       C  0.50814877  0.58613123  0.96608376    -0.21000
C1732       C  0.52739389  0.61427271  0.50209620    -0.09000
C1733       C  0.50576670  0.62505491  0.53295625     0.29800
C1734       C  0.96794448  0.60838168  0.52765637    -0.21000
C1735       C  0.94755325  0.57693050  0.99636072    -0.09000
C1736       C  0.96932997  0.56627063  0.96525185     0.29800
F1737       F  0.95454507  0.53774707  0.93228998    -0.19600
H1738       H  0.52350224  0.57879156  0.93872610     0.18200
H1739       H  0.95530322  0.62225797  0.54783583     0.18200
F1740       F  0.52059048  0.65520762  0.56393277    -0.19500
C1741       C  0.67435530  0.58698136  0.59712670    -0.21000
C1742       C  0.67931505  0.56698137  0.55637443    -0.09000
C1743       C  0.70515598  0.55480929  0.56266036     0.29800
C1744       C  0.72840538  0.56676322  0.60397729    -0.21000
C1745       C  0.72609138  0.59027266  0.64114405    -0.09000
C1746       C  0.69778830  0.59906545  0.63834728     0.29800
F1747       F  0.69281280  0.61967249  0.67512684    -0.19600
H1748       H  0.65285292  0.59420357  0.59737171     0.18200
H1749       H  0.74924562  0.55859555  0.60572921     0.18200
F1750       F  0.71024994  0.53387043  0.52660859    -0.19500
C1751       C  0.66882683  0.56647190  0.90983760    -0.21000
C1752       C  0.68415808  0.57496935  0.95876306    -0.09000
C1753       C  0.72274865  0.60104551  0.96103150     0.29800
C1754       C  0.74477157  0.61390195  0.91668671    -0.21000
C1755       C  0.72960690  0.60187075  0.86896927    -0.09000
C1756       C  0.69136068  0.57850528  0.86554099     0.29800
F1757       F  0.67578831  0.56776814  0.81943702    -0.19600
H1758       H  0.63928977  0.54863020  0.90611802     0.18200
H1759       H  0.77411019  0.63336745  0.91968633     0.18200
F1760       F  0.73955325  0.61668884  0.00512462    -0.19500
C1761       C  0.62933606  0.63352277  0.50259927    -0.21000
C1762       C  0.59035491  0.61368678  0.00183542    -0.09000
C1763       C  0.57299562  0.57444373  0.00669350     0.29800
C1764       C  0.59393425  0.55645732  0.00521261    -0.21000
C1765       C  0.63295272  0.57653643  0.00601662    -0.09000
C1766       C  0.65001131  0.61581383  0.50550700     0.29800
F1767       F  0.68717107  0.63769283  0.50841849    -0.19600
H1768       H  0.64418840  0.66360576  0.50096806     0.18200
H1769       H  0.57866893  0.52654696  0.00453811     0.18200
F1770       F  0.53620853  0.55273159  0.01608061    -0.19500
C1771       C  0.60252763  0.83388656  0.91793706    -0.21000
C1772       C  0.60004058  0.84643548  0.87023774    -0.09000
C1773       C  0.58591346  0.87058043  0.86679053     0.29800
C1774       C  0.57522531  0.88257677  0.91100765    -0.21000
C1775       C  0.58126327  0.87340939  0.96000409    -0.09000
C1776       C  0.59340238  0.84689533  0.96226823     0.29800
F1777       F  0.59432906  0.83106792  0.00636372    -0.19600
H1778       H  0.61205119  0.81404837  0.92095628     0.18200
H1779       H  0.56385785  0.90079897  0.90719736     0.18200
F1780       F  0.58199042  0.88213934  0.82071771    -0.19500
C1781       C  0.63396022  0.88199689  0.60500036    -0.21000
C1782       C  0.60850899  0.85859355  0.64238478    -0.09000
C1783       C  0.57129995  0.84927387  0.63948592     0.29800
C1784       C  0.55955113  0.86090386  0.59810179    -0.21000
C1785       C  0.58430166  0.88122366  0.55748746    -0.09000
C1786       C  0.62231392  0.89355507  0.56358955     0.29800
F1787       F  0.64807642  0.91441170  0.52734920    -0.19600
H1788       H  0.66298576  0.89041858  0.60668734     0.18200
H1789       H  0.53074137  0.85321440  0.59817456     0.18200
F1790       F  0.54601672  0.82865824  0.67640055    -0.19500
C1791       C  0.62153227  0.95391104  0.96921019    -0.21000
C1792       C  0.59266843  0.93400008  0.00549615    -0.09000
C1793       C  0.58818903  0.95541473  0.54470507     0.29800
C1794       C  0.60873046  0.99447133  0.54391748    -0.21000
C1795       C  0.63492808  0.51434187  0.00441009    -0.09000
C1796       C  0.64245448  0.99259303  0.96889424     0.29800
F1797       F  0.67257991  0.50744279  0.93689293    -0.19600
H1798       H  0.63077451  0.93996631  0.94258230     0.18200
H1799       H  0.60419281  0.50951946  0.57477752     0.18200
F1800       F  0.56431400  0.93853161  0.58468052    -0.19500
C1801       C  0.84505972  0.74404502  0.89404887    -0.21000
C1802       C  0.87148440  0.74445565  0.85962196    -0.09000
C1803       C  0.90893119  0.76988579  0.86637446     0.29800
C1804       C  0.91988141  0.79363869  0.90845059    -0.21000
C1805       C  0.89395952  0.79053779  0.94717998    -0.09000
C1806       C  0.85587667  0.76644114  0.93736372     0.29800
F1807       F  0.82888198  0.76180144  0.97160698    -0.19600
H1808       H  0.81592918  0.72468894  0.88894360     0.18200
H1809       H  0.94896967  0.81362753  0.91050351     0.18200
F1810       F  0.93496065  0.77180282  0.83212391    -0.19500
C1811       C  0.90147309  0.80043616  0.59440477    -0.21000
C1812       C  0.89418457  0.78494843  0.54482489    -0.09000
C1813       C  0.87786052  0.74567279  0.54075652     0.29800
C1814       C  0.86411038  0.72335320  0.58397507    -0.21000
C1815       C  0.86906910  0.73910744  0.63235202    -0.09000
C1816       C  0.88908850  0.77780859  0.63765586     0.29800
F1817       F  0.89543449  0.79367914  0.68450477    -0.19600
H1818       H  0.91555528  0.83032345  0.59941513     0.18200
H1819       H  0.85046878  0.69345977  0.57974378     0.18200
F1820       F  0.87666494  0.72823662  0.49621774    -0.19500
C1821       C  0.96813992  0.81545775  0.00210578    -0.21000
C1822       C  0.94895844  0.83540344  0.00185779    -0.09000
C1823       C  0.97061789  0.87456927  0.50754756     0.29800
C1824       C  0.50950633  0.89244977  0.50684051    -0.21000
C1825       C  0.52841739  0.87216133  0.00719558    -0.09000
C1826       C  0.50631674  0.83293605  0.00571014     0.29800
F1827       F  0.52149539  0.81081575  0.00804932    -0.19600
H1828       H  0.95310253  0.78540533  0.99954218     0.18200
H1829       H  0.52422779  0.92239921  0.50713174     0.18200
F1830       F  0.95525181  0.89620090  0.51647005    -0.19500
C1831       C  0.89381323  0.86269411  0.96514311    -0.21000
C1832       C  0.88541474  0.83493911  0.00167835    -0.09000
C1833       C  0.85319098  0.82440636  0.53265075     0.29800
C1834       C  0.83246684  0.84180466  0.52828600    -0.21000
C1835       C  0.84317675  0.87303948  0.99658793    -0.09000
C1836       C  0.87429793  0.88214929  0.96341923     0.29800
F1837       F  0.88506471  0.90754752  0.92610114    -0.19600
H1838       H  0.91596663  0.86938833  0.93719145     0.18200
H1839       H  0.80639629  0.82848136  0.54937334     0.18200
F1840       F  0.83772114  0.79395852  0.56306692    -0.19500
loop_ 
_geom_bond_atom_site_label_1 
_geom_bond_atom_site_label_2 
_geom_bond_distance 
_geom_bond_site_symmetry_2 
_ccdc_geom_bond_type 
C1          C202   1.558   1_556  S
C1          C425   1.562       .  S
C1          C442   1.568   1_556  S
C1          C452   1.564   1_556  S
C2          C165   1.568       .  S
C2          C182   1.570       .  S
C2          C215   1.566       .  S
C2          C405   1.555       .  S
C3          C142   1.564       .  S
C3          C155   1.566       .  S
C3          C185   1.571       .  S
C3          C362   1.555       .  S
C4          C102   1.558   1_556  S
C4          C122   1.561   1_556  S
C4          C345   1.568       .  S
C4          C382   1.569   1_556  S
C5           C72   1.558       .  S
C5           C95   1.582       .  S
C5          C125   1.582       .  S
C5          C315   1.577       .  S
C6           C65   1.557       .  S
C6           C92   1.580       .  S
C6          C225   1.590       .  S
C6          C285   1.570       .  S
O7          Cr25   2.010       .  S
O7           C15   1.264       .  A
O8          Cr25   1.969       .  S
O8            C9   1.258       .  A
C9           O10   1.266       .  A
C9           C52   1.466       .  S
O10         Cr26   2.016       .  S
O11         Cr26   1.969       .  S
O11          C12   1.259       .  A
C12          O13   1.267       .  A
C12         C172   1.484       .  S
O13         Cr27   2.016       .  S
O14         Cr27   1.981       .  S
O14          C15   1.260       .  A
C15         C105   1.469       .  S
O16         Cr25   1.968       .  S
O16          C24   1.260       .  A
O17         Cr25   2.021       .  S
O17          C18   1.269       .  A
C18          O19   1.260       .  A
C18          C62   1.486       .  S
O19         Cr26   1.965       .  S
O20         Cr26   2.018       .  S
O20          C21   1.267       .  A
C21          O22   1.259       .  A
C21         C162   1.470       .  S
O22         Cr27   1.973       .  S
O23         Cr27   2.012       .  S
O23          C24   1.268       .  A
C24         C112   1.469       .  S
Cr25         O28   1.771       .  S
Cr26         O28   1.770       .  S
Cr27         O28   1.765       .  S
O29         Cr47   1.977       .  S
O29          C37   1.260       .  A
O30         Cr47   2.017       .  S
O30          C31   1.268       .  A
C31          O32   1.258       .  A
C31         C135   1.483       .  S
O32         Cr48   1.966       .  S
O33         Cr48   2.016       .  S
O33          C34   1.266       .  A
C34          O35   1.258       .  A
C34          C82   1.468       .  S
O35         Cr49   1.973       .  S
O36         Cr49   2.008       .  S
O36          C37   1.263       .  A
C37         C205   1.464       .  S
O38         Cr47   2.009       .  S
O38          C46   1.267       .  A
O39         Cr47   1.970       .  S
O39          C40   1.258       .  A
C40          O41   1.267       .  A
C40         C145   1.469       .  S
O41         Cr48   2.020       .  S
O42         Cr48   1.962       .  S
O42          C43   1.258       .  A
C43          O44   1.270       .  A
C43          C75   1.486       .  S
O44         Cr49   2.024       .  S
O45         Cr49   1.968       .  S
O45          C46   1.261       .  A
C46         C192   1.466       .  S
Cr47         O50   1.764       .  S
Cr48         O50   1.768       .  S
Cr49         O50   1.771       .  S
C51          C52   1.396       .  A
C51          C56   1.399       .  A
C51          H58   1.083       .  S
C52          C53   1.397       .  A
C53          C54   1.392       .  A
C53          F60   1.354       .  S
C54          C55   1.416       .  A
C54          H59   1.078       .  S
C55         C236   1.570   1_554  S
C55          C56   1.428       .  A
C56          F57   1.358       .  S
C61          C62   1.402       .  A
C61          C66   1.393       .  A
C61          H68   1.083       .  S
C62          C63   1.407       .  A
C63          C64   1.401       .  A
C63          F70   1.357       .  S
C64          C65   1.416       .  A
C64          H69   1.080       .  S
C65          C66   1.419       .  A
C66          F67   1.357       .  S
C71          C72   1.414       .  A
C71          C76   1.391       .  A
C71          H78   1.082       .  S
C72          C73   1.423       .  A
C73          C74   1.403       .  A
C73          F80   1.355       .  S
C74          C75   1.404       .  A
C74          H79   1.083       .  S
C75          C76   1.406       .  A
C76          F77   1.358       .  S
C81          C82   1.395       .  A
C81          C86   1.397       .  A
C81          H88   1.083       .  S
C82          C83   1.400       .  A
C83          C84   1.396       .  A
C83          F90   1.357       .  S
C84          C85   1.418       .  A
C84          H89   1.079       .  S
C85         C235   1.577   1_554  S
C85          C86   1.428       .  A
C86          F87   1.359       .  S
C91          C92   1.414       .  A
C91          C96   1.406       .  A
C91          H98   1.078       .  S
C92         C323   1.423       .  A
C93          C94   1.385       .  A
C93         C322   1.423   1_554  A
C93         F100   1.355       .  S
C94         C785   1.413   1_554  A
C94         H559   1.074       .  S
C95         C784   1.413   1_545  A
C95         C556   1.420   1_545  A
C96         C555   1.420       .  A
C96         F557   1.357       .  S
F97         C556   1.357   1_545  S
H99         C554   1.074   1_545  S
C101        C102   1.415       .  A
C101        C106   1.394       .  A
C101        H108   1.077       .  S
C102        C103   1.421       .  A
C103        C104   1.400       .  A
C103        F110   1.357       .  S
C104        C105   1.399       .  A
C104        H109   1.083       .  S
C105        C106   1.398       .  A
C106        F107   1.354       .  S
C111        C112   1.394       .  A
C111        C116   1.395       .  A
C111        H118   1.084       .  S
C112        C113   1.399       .  A
C113        C114   1.399       .  A
C113        F120   1.358       .  S
C114        C115   1.419       .  A
C114        H119   1.078       .  S
C115        C234   1.568       .  S
C115        C116   1.425       .  A
C116        F117   1.354       .  S
C121        C352   1.409       .  A
C121       C1046   1.406   1_455  A
C121        H128   1.084       .  S
C122        C123   1.418       .  A
C122        C351   1.409   1_554  A
C123       C1044   1.384   1_455  A
C123        F130   1.356       .  S
C124       C1043   1.384       .  A
C124        C355   1.417   1_554  A
C124        H129   1.079       .  S
C125        C126   1.423       .  A
C125        C354   1.417       .  A
C126       C1041   1.406       .  A
C126        F127   1.344       .  S
C131        C132   1.415       .  A
C131        C136   1.398       .  A
C131        H138   1.080       .  S
C132        C233   1.555       .  S
C132        C133   1.418       .  A
C133        C134   1.396       .  A
C133        F140   1.356       .  S
C134        C135   1.403       .  A
C134        H139   1.083       .  S
C135        C136   1.405       .  A
C136        F137   1.357       .  S
C141        C142   1.418       .  A
C141        C146   1.401       .  A
C141        H148   1.083       .  S
C142        C143   1.427       .  A
C143        C144   1.394       .  A
C143        F150   1.355       .  S
C144        C145   1.395       .  A
C144        H149   1.084       .  S
C145        C146   1.400       .  A
C146        F147   1.357       .  S
C151        C156   1.391       .  A
C151        C382   1.411       .  A
C151        H158   1.083       .  S
C152        C234   1.569       .  S
C152        C153   1.421       .  A
C152        C381   1.411       .  A
C153        C154   1.405       .  A
C153        F160   1.353       .  S
C154        C155   1.413       .  A
C154        H159   1.077       .  S
C155        C386   1.417       .  A
C156        C385   1.417       .  A
C156        F157   1.356       .  S
C161        C162   1.395       .  A
C161        C166   1.395       .  A
C161        H168   1.084       .  S
C162        C163   1.400       .  A
C163        C164   1.401       .  A
C163        F170   1.357       .  S
C164        C165   1.417       .  A
C164        H169   1.083       .  S
C165        C166   1.427       .  A
C166        F167   1.355       .  S
C171        C172   1.403       .  A
C171        C176   1.395       .  A
C171        H178   1.083       .  S
C172        C173   1.406       .  A
C173        C174   1.399       .  A
C173        F180   1.357       .  S
C174        C175   1.415       .  A
C174        H179   1.080       .  S
C175        C232   1.555       .  S
C175        C176   1.419       .  A
C176        F177   1.357       .  S
C181        C182   1.413       .  A
C181        C186   1.393       .  A
C181        H188   1.078       .  S
C182        C413   1.416       .  A
C183        C184   1.406       .  A
C183        C412   1.416       .  A
C183        F190   1.357       .  S
C184        C875   1.415       .  A
C184        H649   1.083       .  S
C185        C874   1.415   1_545  A
C185        C646   1.420   1_545  A
C186        C645   1.420       .  A
C186        F647   1.355       .  S
F187        C646   1.355   1_545  S
H189        C644   1.083   1_545  S
C191        C192   1.395       .  A
C191        C196   1.395       .  A
C191        H198   1.084       .  S
C192        C193   1.399       .  A
C193        C194   1.397       .  A
C193        F200   1.358       .  S
C194        C195   1.418       .  A
C194        H199   1.079       .  S
C195        C231   1.562       .  S
C195        C196   1.424       .  A
C196        F197   1.354       .  S
C201        C202   1.418       .  A
C201        C206   1.399       .  A
C201        H208   1.084       .  S
C202        C203   1.423       .  A
C203        C204   1.393       .  A
C203        F210   1.355   1_554  S
C204        C205   1.394       .  A
C204        H209   1.082       .  S
C205        C206   1.400       .  A
C206        F207   1.357       .  S
C211        C212   1.411       .  A
C211       C1136   1.390       .  A
C211        H218   1.083       .  S
C212        C231   1.568       .  S
C212        C443   1.420       .  A
C213        C442   1.420       .  A
C213       C1134   1.408       .  A
C213        F220   1.353       .  S
C214       C1133   1.408   1_455  A
C214        C445   1.414       .  A
C214        H219   1.077       .  S
C215        C216   1.416       .  A
C215        C444   1.414       .  A
C216       C1131   1.390   1_455  A
C216        F217   1.355       .  S
C221        C222   1.410       .  A
C221        C226   1.408       .  A
C221        H228   1.084       .  S
C222        C231   1.564       .  S
C222        C453   1.418       .  A
C223        C224   1.386       .  A
C223        C452   1.418       .  A
C223        F230   1.356       .  S
C224        C455   1.419   1_554  A
C224        H229   1.079       .  S
C225        C226   1.425       .  A
C225        C454   1.419       .  A
C226        F227   1.346       .  S
C231        C432   1.558       .  S
C232        C395   1.568   1_554  S
C232        C412   1.570       .  S
C232        C445   1.566       .  S
C233        C372   1.564   1_554  S
C233        C385   1.566       .  S
C233        C415   1.571       .  S
C234        C332   1.558       .  S
C234        C352   1.561       .  S
C235        C302   1.558       .  S
C235        C325   1.582       .  S
C235        C355   1.582       .  S
C236        C295   1.557       .  S
C236        C322   1.579       .  S
C236        C455   1.590       .  S
O237       Cr255   2.010       .  S
O237        C245   1.264       .  A
O238       Cr255   1.969       .  S
O238        C239   1.258       .  A
C239        O240   1.266       .  A
C239        C282   1.467       .  S
O240       Cr256   2.016       .  S
O241       Cr256   1.969       .  S
O241        C242   1.259       .  A
C242        O243   1.267       .  A
C242        C402   1.484       .  S
O243       Cr257   2.016       .  S
O244       Cr257   1.981       .  S
O244        C245   1.260       .  A
C245        C335   1.469       .  S
O246       Cr255   1.968       .  S
O246        C254   1.260       .  A
O247       Cr255   2.021       .  S
O247        C248   1.269       .  A
C248        O249   1.260       .  A
C248        C292   1.486       .  S
O249       Cr256   1.965       .  S
O250       Cr256   2.018       .  S
O250        C251   1.267       .  A
C251        O252   1.259       .  A
C251        C392   1.470       .  S
O252       Cr257   1.973       .  S
O253       Cr257   2.012       .  S
O253        C254   1.268       .  A
C254        C342   1.469       .  S
Cr255       O258   1.771       .  S
Cr256       O258   1.770       .  S
Cr257       O258   1.765       .  S
O259       Cr277   1.977       .  S
O259        C267   1.260       .  A
O260       Cr277   2.017       .  S
O260        C261   1.268       .  A
C261        O262   1.258       .  A
C261        C365   1.483       .  S
O262       Cr278   1.966       .  S
O263       Cr278   2.016       .  S
O263        C264   1.266       .  A
C264        O265   1.258       .  A
C264        C312   1.468       .  S
O265       Cr279   1.973       .  S
O266       Cr279   2.008       .  S
O266        C267   1.263       .  A
C267        C435   1.464       .  S
O268       Cr277   2.009       .  S
O268        C276   1.267       .  A
O269       Cr277   1.970       .  S
O269        C270   1.258       .  A
C270        O271   1.267       .  A
C270        C375   1.469       .  S
O271       Cr278   2.020       .  S
O272       Cr278   1.962       .  S
O272        C273   1.258       .  A
C273        O274   1.270       .  A
C273        C305   1.486       .  S
O274       Cr279   2.024       .  S
O275       Cr279   1.968       .  S
O275        C276   1.261       .  A
C276        C422   1.466       .  S
Cr277       O280   1.764       .  S
Cr278       O280   1.768       .  S
Cr279       O280   1.771       .  S
C281        C282   1.396       .  A
C281        C286   1.399       .  A
C281        H288   1.083       .  S
C282        C283   1.397       .  A
C283        C284   1.392       .  A
C283        F290   1.354       .  S
C284        C285   1.416       .  A
C284        H289   1.078       .  S
C285        C286   1.428       .  A
C286        F287   1.358       .  S
C291        C292   1.402       .  A
C291        C296   1.393       .  A
C291        H298   1.083       .  S
C292        C293   1.407       .  A
C293        C294   1.401       .  A
C293        F300   1.357       .  S
C294        C295   1.416       .  A
C294        H299   1.080       .  S
C295        C296   1.419       .  A
C296        F297   1.357       .  S
C301        C302   1.414       .  A
C301        C306   1.391       .  A
C301        H308   1.082       .  S
C302        C303   1.423       .  A
C303        C304   1.403       .  A
C303        F310   1.355       .  S
C304        C305   1.404       .  A
C304        H309   1.083       .  S
C305        C306   1.406       .  A
C306        F307   1.358       .  S
C311        C312   1.395       .  A
C311        C316   1.397       .  A
C311        H318   1.084       .  S
C312        C313   1.400       .  A
C313        C314   1.396       .  A
C313        F320   1.357       .  S
C314        C315   1.418       .  A
C314        H319   1.079       .  S
C315        C316   1.428       .  A
C316        F317   1.359       .  S
C321        C322   1.414       .  A
C321        C326   1.406       .  A
C321        H328   1.078       .  S
C323        C324   1.385       .  A
C323        F330   1.355       .  S
C324        C555   1.413       .  A
C324        H789   1.074       .  S
C325        C554   1.413   1_546  A
C325        C786   1.420   1_545  A
C326        C785   1.420       .  A
C326        F787   1.357       .  S
F327        C786   1.357   1_545  S
H329        C784   1.074   1_545  S
C331        C332   1.415       .  A
C331        C336   1.394       .  A
C331        H338   1.077       .  S
C332        C333   1.421       .  A
C333        C334   1.400       .  A
C333        F340   1.357       .  S
C334        C335   1.399       .  A
C334        H339   1.083       .  S
C335        C336   1.398       .  A
C336        F337   1.354       .  S
C341        C342   1.394       .  A
C341        C346   1.395       .  A
C341        H348   1.084       .  S
C342        C343   1.399       .  A
C343        C344   1.399       .  A
C343        F350   1.358       .  S
C344        C345   1.419       .  A
C344        H349   1.078       .  S
C345        C346   1.425       .  A
C346        F347   1.354       .  S
C351       C1276   1.406   1_455  A
C351        H358   1.084       .  S
C352        C353   1.418       .  A
C353       C1274   1.384   1_455  A
C353        F360   1.356       .  S
C354       C1273   1.384       .  A
C354        H359   1.079       .  S
C355        C356   1.423       .  A
C356       C1271   1.405       .  A
C356        F357   1.344       .  S
C361        C362   1.415       .  A
C361        C366   1.398       .  A
C361        H368   1.080       .  S
C362        C363   1.418       .  A
C363        C364   1.396       .  A
C363        F370   1.356       .  S
C364        C365   1.403       .  A
C364        H369   1.083       .  S
C365        C366   1.406       .  A
C366        F367   1.357       .  S
C371        C372   1.418       .  A
C371        C376   1.401       .  A
C371        H378   1.083       .  S
C372        C373   1.427       .  A
C373        C374   1.394       .  A
C373        F380   1.355   1_556  S
C374        C375   1.395       .  A
C374        H379   1.084       .  S
C375        C376   1.400       .  A
C376        F377   1.357       .  S
C381        C386   1.391       .  A
C381        H388   1.083       .  S
C382        C383   1.421       .  A
C383        C384   1.405       .  A
C383        F390   1.353       .  S
C384        C385   1.413       .  A
C384        H389   1.077       .  S
C386        F387   1.356       .  S
C391        C392   1.395       .  A
C391        C396   1.395       .  A
C391        H398   1.084       .  S
C392        C393   1.400       .  A
C393        C394   1.401       .  A
C393        F400   1.357       .  S
C394        C395   1.418       .  A
C394        H399   1.084       .  S
C395        C396   1.427       .  A
C396        F397   1.355   1_556  S
C401        C402   1.403       .  A
C401        C406   1.395       .  A
C401        H408   1.083       .  S
C402        C403   1.406       .  A
C403        C404   1.399       .  A
C403        F410   1.357       .  S
C404        C405   1.415       .  A
C404        H409   1.080       .  S
C405        C406   1.419       .  A
C406        F407   1.357       .  S
C411        C412   1.413   1_556  A
C411        C416   1.393       .  A
C411        H418   1.078       .  S
C413        C414   1.406       .  A
C413        F420   1.357       .  S
C414        C645   1.415       .  A
C414        H879   1.083       .  S
C415        C644   1.415   1_545  A
C415        C876   1.420   1_544  A
C416        C875   1.420   1_556  A
C416        F877   1.355       .  S
F417        C876   1.355   1_545  S
H419        C874   1.083   1_545  S
C421        C422   1.395       .  A
C421        C426   1.395       .  A
C421        H428   1.084       .  S
C422        C423   1.399       .  A
C423        C424   1.397       .  A
C423        F430   1.358       .  S
C424        C425   1.418       .  A
C424        H429   1.079       .  S
C425        C426   1.424       .  A
C426        F427   1.354       .  S
C431        C432   1.418       .  A
C431        C436   1.399       .  A
C431        H438   1.084       .  S
C432        C433   1.423       .  A
C433        C434   1.393       .  A
C433        F440   1.355       .  S
C434        C435   1.394       .  A
C434        H439   1.082       .  S
C435        C436   1.400       .  A
C436        F437   1.357       .  S
C441        C442   1.411       .  A
C441       C1366   1.390       .  A
C441        H448   1.083   1_554  S
C443       C1364   1.408       .  A
C443        F450   1.353       .  S
C444       C1363   1.408   1_455  A
C444        H449   1.078       .  S
C445        C446   1.416       .  A
C446       C1361   1.390   1_455  A
C446        F447   1.355       .  S
C451        C452   1.410   1_556  A
C451        C456   1.408       .  A
C451        H458   1.084       .  S
C453        C454   1.386       .  A
C453        F460   1.357       .  S
C454        H459   1.079       .  S
C455        C456   1.425       .  A
C456        F457   1.346       .  S
C461        C885   1.562       .  S
C461        C662   1.558   1_556  S
C461        C902   1.568   1_556  S
C461        C912   1.564   1_556  S
C462        C625   1.568       .  S
C462        C865   1.555       .  S
C462        C642   1.570       .  S
C462        C675   1.566       .  S
C463        C822   1.555       .  S
C463        C602   1.564       .  S
C463        C615   1.566       .  S
C463        C645   1.571       .  S
C464        C562   1.558   1_556  S
C464        C805   1.568       .  S
C464        C582   1.561   1_556  S
C464        C842   1.569   1_556  S
C465        C532   1.558       .  S
C465        C775   1.577       .  S
C465        C555   1.582       .  S
C465        C585   1.582       .  S
C466        C745   1.570       .  S
C466        C525   1.557       .  S
C466        C552   1.580       .  S
C466        C685   1.590       .  S
O467       Cr485   2.010       .  S
O467        C475   1.264       .  A
O468       Cr485   1.969       .  S
O468        C469   1.258       .  A
C469        O470   1.266       .  A
C469        C512   1.466       .  S
O470       Cr486   2.016       .  S
O471       Cr486   1.969       .  S
O471        C472   1.259       .  A
C472        O473   1.267       .  A
C472        C632   1.484       .  S
O473       Cr487   2.016       .  S
O474       Cr487   1.981       .  S
O474        C475   1.260       .  A
C475        C565   1.469       .  S
O476       Cr485   1.968       .  S
O476        C484   1.260       .  A
O477       Cr485   2.021       .  S
O477        C478   1.269       .  A
C478        O479   1.260       .  A
C478        C522   1.486       .  S
O479       Cr486   1.965       .  S
O480       Cr486   2.018       .  S
O480        C481   1.267       .  A
C481        O482   1.259       .  A
C481        C622   1.470       .  S
O482       Cr487   1.973       .  S
O483       Cr487   2.012       .  S
O483        C484   1.268       .  A
C484        C572   1.469       .  S
Cr485       O488   1.771       .  S
Cr486       O488   1.770       .  S
Cr487       O488   1.765       .  S
O489       Cr507   1.977       .  S
O489        C497   1.260       .  A
O490       Cr507   2.017       .  S
O490        C491   1.268       .  A
C491        O492   1.258       .  A
C491        C595   1.483       .  S
O492       Cr508   1.966       .  S
O493       Cr508   2.016       .  S
O493        C494   1.266       .  A
C494        O495   1.258       .  A
C494        C542   1.468       .  S
O495       Cr509   1.973       .  S
O496       Cr509   2.008       .  S
O496        C497   1.263       .  A
C497        C665   1.464       .  S
O498       Cr507   2.009       .  S
O498        C506   1.267       .  A
O499       Cr507   1.970       .  S
O499        C500   1.258       .  A
C500        O501   1.267       .  A
C500        C605   1.469       .  S
O501       Cr508   2.020       .  S
O502       Cr508   1.962       .  S
O502        C503   1.258       .  A
C503        O504   1.270       .  A
C503        C535   1.486       .  S
O504       Cr509   2.024       .  S
O505       Cr509   1.968       .  S
O505        C506   1.261       .  A
C506        C652   1.466       .  S
Cr507       O510   1.764       .  S
Cr508       O510   1.768       .  S
Cr509       O510   1.771       .  S
C511        C512   1.396       .  A
C511        C516   1.399       .  A
C511        H518   1.083       .  S
C512        C513   1.397       .  A
C513        C514   1.392       .  A
C513        F520   1.354       .  S
C514        C515   1.416       .  A
C514        H519   1.078       .  S
C515        C696   1.570   1_554  S
C515        C516   1.428       .  A
C516        F517   1.358       .  S
C521        C522   1.402       .  A
C521        C526   1.393       .  A
C521        H528   1.083       .  S
C522        C523   1.407       .  A
C523        C524   1.401       .  A
C523        F530   1.357       .  S
C524        C525   1.416       .  A
C524        H529   1.080       .  S
C525        C526   1.419       .  A
C526        F527   1.357       .  S
C531        C532   1.414       .  A
C531        C536   1.391       .  A
C531        H538   1.082       .  S
C532        C533   1.423       .  A
C533        C534   1.403       .  A
C533        F540   1.355       .  S
C534        C535   1.404       .  A
C534        H539   1.083       .  S
C535        C536   1.406       .  A
C536        F537   1.358       .  S
C541        C542   1.395       .  A
C541        C546   1.397       .  A
C541        H548   1.083       .  S
C542        C543   1.400       .  A
C543        C544   1.396       .  A
C543        F550   1.357       .  S
C544        C545   1.418       .  A
C544        H549   1.079       .  S
C545        C695   1.577   1_554  S
C545        C546   1.428       .  A
C546        F547   1.359       .  S
C551        C552   1.414       .  A
C551        C556   1.406       .  A
C551        H558   1.078       .  S
C552        C783   1.423       .  A
C553        C782   1.423   1_554  A
C553        C554   1.385       .  A
C553        F560   1.355       .  S
C561        C562   1.415       .  A
C561        C566   1.394       .  A
C561        H568   1.077       .  S
C562        C563   1.421       .  A
C563        C564   1.400       .  A
C563        F570   1.357       .  S
C564        C565   1.399       .  A
C564        H569   1.083       .  S
C565        C566   1.398       .  A
C566        F567   1.354       .  S
C571        C572   1.394       .  A
C571        C576   1.395       .  A
C571        H578   1.084       .  S
C572        C573   1.399       .  A
C573        C574   1.399       .  A
C573        F580   1.358       .  S
C574        C575   1.419       .  A
C574        H579   1.078       .  S
C575        C694   1.568       .  S
C575        C576   1.425       .  A
C576        F577   1.354       .  S
C581        C812   1.409       .  A
C581       C1506   1.406   1_455  A
C581        H588   1.084       .  S
C582        C811   1.409   1_554  A
C582        C583   1.418       .  A
C583       C1504   1.384   1_455  A
C583        F590   1.356       .  S
C584       C1503   1.384       .  A
C584        C815   1.417   1_554  A
C584        H589   1.079       .  S
C585        C814   1.417       .  A
C585        C586   1.423       .  A
C586       C1501   1.406       .  A
C586        F587   1.344       .  S
C591        C592   1.415       .  A
C591        C596   1.398       .  A
C591        H598   1.080       .  S
C592        C693   1.555       .  S
C592        C593   1.418       .  A
C593        C594   1.396       .  A
C593        F600   1.356       .  S
C594        C595   1.403       .  A
C594        H599   1.083       .  S
C595        C596   1.405       .  A
C596        F597   1.357       .  S
C601        C602   1.418       .  A
C601        C606   1.401       .  A
C601        H608   1.083       .  S
C602        C603   1.427       .  A
C603        C604   1.394       .  A
C603        F610   1.355       .  S
C604        C605   1.395       .  A
C604        H609   1.085       .  S
C605        C606   1.400       .  A
C606        F607   1.357       .  S
C611        C842   1.411       .  A
C611        C616   1.391       .  A
C611        H618   1.083       .  S
C612        C694   1.569       .  S
C612        C841   1.411       .  A
C612        C613   1.421       .  A
C613        C614   1.405       .  A
C613        F620   1.353       .  S
C614        C615   1.413       .  A
C614        H619   1.077       .  S
C615        C846   1.417       .  A
C616        C845   1.417       .  A
C616        F617   1.356       .  S
C621        C622   1.395       .  A
C621        C626   1.395       .  A
C621        H628   1.084       .  S
C622        C623   1.400       .  A
C623        C624   1.401       .  A
C623        F630   1.357       .  S
C624        C625   1.417       .  A
C624        H629   1.083       .  S
C625        C626   1.427       .  A
C626        F627   1.355       .  S
C631        C632   1.403       .  A
C631        C636   1.395       .  A
C631        H638   1.083       .  S
C632        C633   1.406       .  A
C633        C634   1.399       .  A
C633        F640   1.357       .  S
C634        C635   1.415       .  A
C634        H639   1.080       .  S
C635        C692   1.555       .  S
C635        C636   1.419       .  A
C636        F637   1.357       .  S
C641        C642   1.413       .  A
C641        C646   1.393       .  A
C641        H648   1.078       .  S
C642        C873   1.416       .  A
C643        C872   1.416       .  A
C643        C644   1.406       .  A
C643        F650   1.357       .  S
C651        C652   1.395       .  A
C651        C656   1.395       .  A
C651        H658   1.084       .  S
C652        C653   1.399       .  A
C653        C654   1.397       .  A
C653        F660   1.358       .  S
C654        C655   1.418       .  A
C654        H659   1.079       .  S
C655        C691   1.562       .  S
C655        C656   1.424       .  A
C656        F657   1.354       .  S
C661        C662   1.418       .  A
C661        C666   1.399       .  A
C661        H668   1.083       .  S
C662        C663   1.423       .  A
C663        C664   1.393       .  A
C663        F670   1.355   1_554  S
C664        C665   1.394       .  A
C664        H669   1.082       .  S
C665        C666   1.400       .  A
C666        F667   1.357       .  S
C671        C672   1.411       .  A
C671       C1596   1.390       .  A
C671        H678   1.083       .  S
C672        C691   1.568       .  S
C672        C903   1.420       .  A
C673        C902   1.420       .  A
C673       C1594   1.408       .  A
C673        F680   1.353       .  S
C674       C1593   1.408   1_455  A
C674        C905   1.414       .  A
C674        H679   1.078       .  S
C675        C904   1.414       .  A
C675        C676   1.416       .  A
C676       C1591   1.390   1_455  A
C676        F677   1.355       .  S
C681        C682   1.410       .  A
C681        C686   1.408       .  A
C681        H688   1.083       .  S
C682        C691   1.564       .  S
C682        C913   1.418       .  A
C683        C912   1.418       .  A
C683        C684   1.386       .  A
C683        F690   1.356       .  S
C684        C915   1.419   1_554  A
C684        H689   1.079       .  S
C685        C914   1.419       .  A
C685        C686   1.425       .  A
C686        F687   1.346       .  S
C691        C892   1.558       .  S
C692        C855   1.568   1_554  S
C692        C872   1.570       .  S
C692        C905   1.566       .  S
C693        C832   1.564   1_554  S
C693        C845   1.566       .  S
C693        C875   1.571       .  S
C694        C792   1.558       .  S
C694        C812   1.561       .  S
C695        C762   1.558       .  S
C695        C785   1.582       .  S
C695        C815   1.582       .  S
C696        C755   1.557       .  S
C696        C782   1.580       .  S
C696        C915   1.590       .  S
O697       Cr715   2.010       .  S
O697        C705   1.264       .  A
O698       Cr715   1.969       .  S
O698        C699   1.258       .  A
C699        O700   1.266       .  A
C699        C742   1.467       .  S
O700       Cr716   2.016       .  S
O701       Cr716   1.969       .  S
O701        C702   1.259       .  A
C702        O703   1.267       .  A
C702        C862   1.484       .  S
O703       Cr717   2.016       .  S
O704       Cr717   1.981       .  S
O704        C705   1.260       .  A
C705        C795   1.469       .  S
O706       Cr715   1.968       .  S
O706        C714   1.260       .  A
O707       Cr715   2.021       .  S
O707        C708   1.269       .  A
C708        O709   1.260       .  A
C708        C752   1.486       .  S
O709       Cr716   1.965       .  S
O710       Cr716   2.018       .  S
O710        C711   1.267       .  A
C711        O712   1.259       .  A
C711        C852   1.470       .  S
O712       Cr717   1.973       .  S
O713       Cr717   2.012       .  S
O713        C714   1.268       .  A
C714        C802   1.469       .  S
Cr715       O718   1.771       .  S
Cr716       O718   1.770       .  S
Cr717       O718   1.765       .  S
O719       Cr737   1.977       .  S
O719        C727   1.260       .  A
O720       Cr737   2.017       .  S
O720        C721   1.268       .  A
C721        O722   1.258       .  A
C721        C825   1.483       .  S
O722       Cr738   1.966       .  S
O723       Cr738   2.016       .  S
O723        C724   1.266       .  A
C724        O725   1.258       .  A
C724        C772   1.468       .  S
O725       Cr739   1.973       .  S
O726       Cr739   2.008       .  S
O726        C727   1.263       .  A
C727        C895   1.464       .  S
O728       Cr737   2.009       .  S
O728        C736   1.267       .  A
O729       Cr737   1.970       .  S
O729        C730   1.258       .  A
C730        O731   1.267       .  A
C730        C835   1.469       .  S
O731       Cr738   2.020       .  S
O732       Cr738   1.962       .  S
O732        C733   1.258       .  A
C733        O734   1.270       .  A
C733        C765   1.486       .  S
O734       Cr739   2.024       .  S
O735       Cr739   1.968       .  S
O735        C736   1.261       .  A
C736        C882   1.466       .  S
Cr737       O740   1.764       .  S
Cr738       O740   1.768       .  S
Cr739       O740   1.771       .  S
C741        C742   1.396       .  A
C741        C746   1.399       .  A
C741        H748   1.083       .  S
C742        C743   1.397       .  A
C743        C744   1.392       .  A
C743        F750   1.354       .  S
C744        C745   1.416       .  A
C744        H749   1.078       .  S
C745        C746   1.428       .  A
C746        F747   1.358       .  S
C751        C752   1.402       .  A
C751        C756   1.393       .  A
C751        H758   1.083       .  S
C752        C753   1.407       .  A
C753        C754   1.401       .  A
C753        F760   1.357       .  S
C754        C755   1.416       .  A
C754        H759   1.080       .  S
C755        C756   1.419       .  A
C756        F757   1.357       .  S
C761        C762   1.414       .  A
C761        C766   1.391       .  A
C761        H768   1.082       .  S
C762        C763   1.423       .  A
C763        C764   1.403       .  A
C763        F770   1.355       .  S
C764        C765   1.404       .  A
C764        H769   1.083       .  S
C765        C766   1.406       .  A
C766        F767   1.358       .  S
C771        C772   1.395       .  A
C771        C776   1.397       .  A
C771        H778   1.083       .  S
C772        C773   1.400       .  A
C773        C774   1.396       .  A
C773        F780   1.357       .  S
C774        C775   1.418       .  A
C774        H779   1.079       .  S
C775        C776   1.428       .  A
C776        F777   1.359       .  S
C781        C782   1.414       .  A
C781        C786   1.406       .  A
C781        H788   1.078       .  S
C783        C784   1.385       .  A
C783        F790   1.355       .  S
C791        C792   1.415       .  A
C791        C796   1.394       .  A
C791        H798   1.077       .  S
C792        C793   1.421       .  A
C793        C794   1.400       .  A
C793        F800   1.357       .  S
C794        C795   1.399       .  A
C794        H799   1.083       .  S
C795        C796   1.398       .  A
C796        F797   1.354       .  S
C801        C802   1.394       .  A
C801        C806   1.395       .  A
C801        H808   1.084       .  S
C802        C803   1.399       .  A
C803        C804   1.399       .  A
C803        F810   1.358       .  S
C804        C805   1.419       .  A
C804        H809   1.078       .  S
C805        C806   1.425       .  A
C806        F807   1.354       .  S
C811       C1736   1.405   1_455  A
C811        H818   1.084       .  S
C812        C813   1.418       .  A
C813       C1734   1.384   1_455  A
C813        F820   1.356       .  S
C814       C1733   1.384       .  A
C814        H819   1.079       .  S
C815        C816   1.423       .  A
C816       C1731   1.406       .  A
C816        F817   1.344       .  S
C821        C822   1.415       .  A
C821        C826   1.398       .  A
C821        H828   1.080       .  S
C822        C823   1.418       .  A
C823        C824   1.396       .  A
C823        F830   1.356       .  S
C824        C825   1.403       .  A
C824        H829   1.083       .  S
C825        C826   1.406       .  A
C826        F827   1.357       .  S
C831        C832   1.418       .  A
C831        C836   1.401       .  A
C831        H838   1.083       .  S
C832        C833   1.427       .  A
C833        C834   1.394       .  A
C833        F840   1.355   1_556  S
C834        C835   1.395       .  A
C834        H839   1.084       .  S
C835        C836   1.400       .  A
C836        F837   1.357       .  S
C841        C846   1.391       .  A
C841        H848   1.083       .  S
C842        C843   1.421       .  A
C843        C844   1.405       .  A
C843        F850   1.353       .  S
C844        C845   1.413       .  A
C844        H849   1.076       .  S
C846        F847   1.356       .  S
C851        C852   1.395       .  A
C851        C856   1.395       .  A
C851        H858   1.084       .  S
C852        C853   1.400       .  A
C853        C854   1.401       .  A
C853        F860   1.357       .  S
C854        C855   1.417       .  A
C854        H859   1.083       .  S
C855        C856   1.427       .  A
C856        F857   1.355   1_556  S
C861        C862   1.403       .  A
C861        C866   1.395       .  A
C861        H868   1.083       .  S
C862        C863   1.406       .  A
C863        C864   1.399       .  A
C863        F870   1.357       .  S
C864        C865   1.415       .  A
C864        H869   1.080       .  S
C865        C866   1.419       .  A
C866        F867   1.357       .  S
C871        C872   1.413   1_556  A
C871        C876   1.393       .  A
C871        H878   1.078       .  S
C873        C874   1.406       .  A
C873        F880   1.357       .  S
C881        C882   1.395       .  A
C881        C886   1.395       .  A
C881        H888   1.084       .  S
C882        C883   1.399       .  A
C883        C884   1.397       .  A
C883        F890   1.358       .  S
C884        C885   1.418       .  A
C884        H889   1.079       .  S
C885        C886   1.424       .  A
C886        F887   1.354       .  S
C891        C892   1.418       .  A
C891        C896   1.399       .  A
C891        H898   1.084       .  S
C892        C893   1.423       .  A
C893        C894   1.393       .  A
C893        F900   1.355       .  S
C894        C895   1.394       .  A
C894        H899   1.082       .  S
C895        C896   1.400       .  A
C896        F897   1.357       .  S
C901        C902   1.411       .  A
C901       C1826   1.390       .  A
C901        H908   1.083   1_554  S
C903       C1824   1.408       .  A
C903        F910   1.353       .  S
C904       C1823   1.408   1_455  A
C904        H909   1.077       .  S
C905        C906   1.416       .  A
C906       C1821   1.390   1_455  A
C906        F907   1.355       .  S
C911        C912   1.410   1_556  A
C911        C916   1.408       .  A
C911        H918   1.083       .  S
C913        C914   1.386       .  A
C913        F920   1.357       .  S
C914        H919   1.079       .  S
C915        C916   1.425       .  A
C916        F917   1.346       .  S
C921       C1345   1.562       .  S
C921       C1122   1.558   1_556  S
C921       C1362   1.568   1_556  S
C921       C1372   1.564   1_556  S
C922       C1085   1.568       .  S
C922       C1325   1.555       .  S
C922       C1102   1.570       .  S
C922       C1135   1.566       .  S
C923       C1282   1.555       .  S
C923       C1062   1.564       .  S
C923       C1075   1.566       .  S
C923       C1105   1.571       .  S
C924       C1022   1.558   1_556  S
C924       C1265   1.568       .  S
C924       C1042   1.561   1_556  S
C924       C1302   1.569   1_556  S
C925        C992   1.558       .  S
C925       C1235   1.577       .  S
C925       C1015   1.582       .  S
C925       C1045   1.582       .  S
C926       C1205   1.570       .  S
C926        C985   1.557       .  S
C926       C1012   1.580       .  S
C926       C1145   1.590       .  S
O927       Cr945   2.010       .  S
O927        C935   1.264       .  A
O928       Cr945   1.969       .  S
O928        C929   1.258       .  A
C929        O930   1.266       .  A
C929        C972   1.466       .  S
O930       Cr946   2.016       .  S
O931       Cr946   1.969       .  S
O931        C932   1.259       .  A
C932        O933   1.267       .  A
C932       C1092   1.484       .  S
O933       Cr947   2.016       .  S
O934       Cr947   1.981       .  S
O934        C935   1.260       .  A
C935       C1025   1.469       .  S
O936       Cr945   1.968       .  S
O936        C944   1.260       .  A
O937       Cr945   2.021       .  S
O937        C938   1.269       .  A
C938        O939   1.260       .  A
C938        C982   1.486       .  S
O939       Cr946   1.965       .  S
O940       Cr946   2.018       .  S
O940        C941   1.267       .  A
C941        O942   1.259       .  A
C941       C1082   1.470       .  S
O942       Cr947   1.973       .  S
O943       Cr947   2.012       .  S
O943        C944   1.268       .  A
C944       C1032   1.469       .  S
Cr945       O948   1.771       .  S
Cr946       O948   1.770       .  S
Cr947       O948   1.765       .  S
O949       Cr967   1.977       .  S
O949        C957   1.260       .  A
O950       Cr967   2.017       .  S
O950        C951   1.268       .  A
C951        O952   1.258       .  A
C951       C1055   1.483       .  S
O952       Cr968   1.966       .  S
O953       Cr968   2.016       .  S
O953        C954   1.266       .  A
C954        O955   1.258       .  A
C954       C1002   1.468       .  S
O955       Cr969   1.973       .  S
O956       Cr969   2.008       .  S
O956        C957   1.263       .  A
C957       C1125   1.464       .  S
O958       Cr967   2.009       .  S
O958        C966   1.267       .  A
O959       Cr967   1.970       .  S
O959        C960   1.258       .  A
C960        O961   1.267       .  A
C960       C1065   1.469       .  S
O961       Cr968   2.020       .  S
O962       Cr968   1.962       .  S
O962        C963   1.258       .  A
C963        O964   1.270       .  A
C963        C995   1.486       .  S
O964       Cr969   2.024       .  S
O965       Cr969   1.968       .  S
O965        C966   1.261       .  A
C966       C1112   1.466       .  S
Cr967       O970   1.764       .  S
Cr968       O970   1.768       .  S
Cr969       O970   1.771       .  S
C971        C972   1.396       .  A
C971        C976   1.399       .  A
C971        H978   1.083       .  S
C972        C973   1.397       .  A
C973        C974   1.392       .  A
C973        F980   1.354       .  S
C974        C975   1.416       .  A
C974        H979   1.078       .  S
C975       C1156   1.570   1_554  S
C975        C976   1.428       .  A
C976        F977   1.358       .  S
C981        C982   1.402       .  A
C981        C986   1.393       .  A
C981        H988   1.083       .  S
C982        C983   1.407       .  A
C983        C984   1.401       .  A
C983        F990   1.357       .  S
C984        C985   1.416       .  A
C984        H989   1.080       .  S
C985        C986   1.419       .  A
C986        F987   1.357       .  S
C991        C992   1.414       .  A
C991        C996   1.391       .  A
C991        H998   1.082       .  S
C992        C993   1.423       .  A
C993        C994   1.403       .  A
C993       F1000   1.355       .  S
C994        C995   1.404       .  A
C994        H999   1.084       .  S
C995        C996   1.406       .  A
C996        F997   1.358       .  S
C1001      C1002   1.395       .  A
C1001      C1006   1.397       .  A
C1001      H1008   1.083       .  S
C1002      C1003   1.400       .  A
C1003      C1004   1.396       .  A
C1003      F1010   1.357       .  S
C1004      C1005   1.418       .  A
C1004      H1009   1.079       .  S
C1005      C1155   1.577   1_554  S
C1005      C1006   1.428       .  A
C1006      F1007   1.359       .  S
C1011      C1012   1.414       .  A
C1011      C1016   1.406       .  A
C1011      H1018   1.078       .  S
C1012      C1243   1.423       .  A
C1013      C1242   1.423   1_554  A
C1013      C1014   1.385       .  A
C1013      F1020   1.355       .  S
C1014      C1705   1.413   1_554  A
C1014      H1479   1.074       .  S
C1015      C1704   1.413   1_545  A
C1015      C1476   1.420   1_545  A
C1016      C1475   1.420       .  A
C1016      F1477   1.357       .  S
F1017      C1476   1.357   1_545  S
H1019      C1474   1.074   1_545  S
C1021      C1022   1.415       .  A
C1021      C1026   1.394       .  A
C1021      H1028   1.077       .  S
C1022      C1023   1.421       .  A
C1023      C1024   1.400       .  A
C1023      F1030   1.357       .  S
C1024      C1025   1.399       .  A
C1024      H1029   1.083       .  S
C1025      C1026   1.398       .  A
C1026      F1027   1.354       .  S
C1031      C1032   1.394       .  A
C1031      C1036   1.395       .  A
C1031      H1038   1.084       .  S
C1032      C1033   1.399       .  A
C1033      C1034   1.399       .  A
C1033      F1040   1.358       .  S
C1034      C1035   1.419       .  A
C1034      H1039   1.078       .  S
C1035      C1154   1.568       .  S
C1035      C1036   1.425       .  A
C1036      F1037   1.354       .  S
C1041      C1272   1.409       .  A
C1041      H1048   1.084       .  S
C1042      C1271   1.409   1_554  A
C1042      C1043   1.418       .  A
C1043      F1050   1.356       .  S
C1044      C1275   1.417   1_554  A
C1044      H1049   1.079       .  S
C1045      C1274   1.417       .  A
C1045      C1046   1.423       .  A
C1046      F1047   1.344       .  S
C1051      C1052   1.415       .  A
C1051      C1056   1.398       .  A
C1051      H1058   1.080       .  S
C1052      C1153   1.555       .  S
C1052      C1053   1.418       .  A
C1053      C1054   1.396       .  A
C1053      F1060   1.356       .  S
C1054      C1055   1.403       .  A
C1054      H1059   1.083       .  S
C1055      C1056   1.405       .  A
C1056      F1057   1.357       .  S
C1061      C1062   1.418       .  A
C1061      C1066   1.401       .  A
C1061      H1068   1.083       .  S
C1062      C1063   1.427       .  A
C1063      C1064   1.394       .  A
C1063      F1070   1.355       .  S
C1064      C1065   1.395       .  A
C1064      H1069   1.084       .  S
C1065      C1066   1.400       .  A
C1066      F1067   1.357       .  S
C1071      C1302   1.411       .  A
C1071      C1076   1.391       .  A
C1071      H1078   1.083       .  S
C1072      C1154   1.569       .  S
C1072      C1301   1.411       .  A
C1072      C1073   1.421       .  A
C1073      C1074   1.405       .  A
C1073      F1080   1.353       .  S
C1074      C1075   1.413       .  A
C1074      H1079   1.077       .  S
C1075      C1306   1.417       .  A
C1076      C1305   1.417       .  A
C1076      F1077   1.356       .  S
C1081      C1082   1.395       .  A
C1081      C1086   1.395       .  A
C1081      H1088   1.084       .  S
C1082      C1083   1.400       .  A
C1083      C1084   1.401       .  A
C1083      F1090   1.357       .  S
C1084      C1085   1.417       .  A
C1084      H1089   1.083       .  S
C1085      C1086   1.427       .  A
C1086      F1087   1.355       .  S
C1091      C1092   1.403       .  A
C1091      C1096   1.395       .  A
C1091      H1098   1.083       .  S
C1092      C1093   1.406       .  A
C1093      C1094   1.399       .  A
C1093      F1100   1.357       .  S
C1094      C1095   1.415       .  A
C1094      H1099   1.080       .  S
C1095      C1152   1.555       .  S
C1095      C1096   1.419       .  A
C1096      F1097   1.357       .  S
C1101      C1102   1.413       .  A
C1101      C1106   1.393       .  A
C1101      H1108   1.078       .  S
C1102      C1333   1.416       .  A
C1103      C1332   1.416       .  A
C1103      C1104   1.406       .  A
C1103      F1110   1.357       .  S
C1104      C1795   1.415       .  A
C1104      H1569   1.083       .  S
C1105      C1794   1.415   1_545  A
C1105      C1566   1.420   1_545  A
C1106      C1565   1.420       .  A
C1106      F1567   1.355       .  S
F1107      C1566   1.355   1_545  S
H1109      C1564   1.083   1_545  S
C1111      C1112   1.395       .  A
C1111      C1116   1.395       .  A
C1111      H1118   1.084       .  S
C1112      C1113   1.399       .  A
C1113      C1114   1.397       .  A
C1113      F1120   1.358       .  S
C1114      C1115   1.418       .  A
C1114      H1119   1.079       .  S
C1115      C1151   1.562       .  S
C1115      C1116   1.424       .  A
C1116      F1117   1.354       .  S
C1121      C1122   1.418       .  A
C1121      C1126   1.399       .  A
C1121      H1128   1.084       .  S
C1122      C1123   1.423       .  A
C1123      C1124   1.393       .  A
C1123      F1130   1.355   1_554  S
C1124      C1125   1.394       .  A
C1124      H1129   1.082       .  S
C1125      C1126   1.400       .  A
C1126      F1127   1.357       .  S
C1131      C1132   1.411       .  A
C1131      H1138   1.083       .  S
C1132      C1151   1.568       .  S
C1132      C1363   1.420       .  A
C1133      C1362   1.420       .  A
C1133      F1140   1.353       .  S
C1134      C1365   1.414       .  A
C1134      H1139   1.077       .  S
C1135      C1364   1.414       .  A
C1135      C1136   1.416       .  A
C1136      F1137   1.355       .  S
C1141      C1142   1.410       .  A
C1141      C1146   1.408       .  A
C1141      H1148   1.084       .  S
C1142      C1151   1.564       .  S
C1142      C1373   1.418       .  A
C1143      C1372   1.418       .  A
C1143      C1144   1.386       .  A
C1143      F1150   1.356       .  S
C1144      C1375   1.419   1_554  A
C1144      H1149   1.079       .  S
C1145      C1374   1.419       .  A
C1145      C1146   1.425       .  A
C1146      F1147   1.346       .  S
C1151      C1352   1.558       .  S
C1152      C1315   1.568   1_554  S
C1152      C1332   1.570       .  S
C1152      C1365   1.566       .  S
C1153      C1292   1.564   1_554  S
C1153      C1305   1.566       .  S
C1153      C1335   1.571       .  S
C1154      C1252   1.558       .  S
C1154      C1272   1.561       .  S
C1155      C1222   1.558       .  S
C1155      C1245   1.582       .  S
C1155      C1275   1.582       .  S
C1156      C1215   1.557       .  S
C1156      C1242   1.579       .  S
C1156      C1375   1.590       .  S
O1157     Cr1175   2.010       .  S
O1157      C1165   1.264       .  A
O1158     Cr1175   1.969       .  S
O1158      C1159   1.258       .  A
C1159      O1160   1.266       .  A
C1159      C1202   1.467       .  S
O1160     Cr1176   2.016       .  S
O1161     Cr1176   1.969       .  S
O1161      C1162   1.259       .  A
C1162      O1163   1.267       .  A
C1162      C1322   1.484       .  S
O1163     Cr1177   2.016       .  S
O1164     Cr1177   1.981       .  S
O1164      C1165   1.260       .  A
C1165      C1255   1.469       .  S
O1166     Cr1175   1.968       .  S
O1166      C1174   1.260       .  A
O1167     Cr1175   2.021       .  S
O1167      C1168   1.269       .  A
C1168      O1169   1.260       .  A
C1168      C1212   1.486       .  S
O1169     Cr1176   1.965       .  S
O1170     Cr1176   2.018       .  S
O1170      C1171   1.267       .  A
C1171      O1172   1.259       .  A
C1171      C1312   1.470       .  S
O1172     Cr1177   1.973       .  S
O1173     Cr1177   2.012       .  S
O1173      C1174   1.268       .  A
C1174      C1262   1.469       .  S
Cr1175     O1178   1.771       .  S
Cr1176     O1178   1.770       .  S
Cr1177     O1178   1.765       .  S
O1179     Cr1197   1.977       .  S
O1179      C1187   1.260       .  A
O1180     Cr1197   2.017       .  S
O1180      C1181   1.268       .  A
C1181      O1182   1.258       .  A
C1181      C1285   1.483       .  S
O1182     Cr1198   1.966       .  S
O1183     Cr1198   2.016       .  S
O1183      C1184   1.266       .  A
C1184      O1185   1.258       .  A
C1184      C1232   1.468       .  S
O1185     Cr1199   1.973       .  S
O1186     Cr1199   2.008       .  S
O1186      C1187   1.263       .  A
C1187      C1355   1.464       .  S
O1188     Cr1197   2.009       .  S
O1188      C1196   1.267       .  A
O1189     Cr1197   1.970       .  S
O1189      C1190   1.258       .  A
C1190      O1191   1.267       .  A
C1190      C1295   1.469       .  S
O1191     Cr1198   2.020       .  S
O1192     Cr1198   1.962       .  S
O1192      C1193   1.258       .  A
C1193      O1194   1.270       .  A
C1193      C1225   1.486       .  S
O1194     Cr1199   2.024       .  S
O1195     Cr1199   1.968       .  S
O1195      C1196   1.261       .  A
C1196      C1342   1.466       .  S
Cr1197     O1200   1.764       .  S
Cr1198     O1200   1.768       .  S
Cr1199     O1200   1.771       .  S
C1201      C1202   1.396       .  A
C1201      C1206   1.399       .  A
C1201      H1208   1.083       .  S
C1202      C1203   1.397       .  A
C1203      C1204   1.392       .  A
C1203      F1210   1.354       .  S
C1204      C1205   1.416       .  A
C1204      H1209   1.078       .  S
C1205      C1206   1.428       .  A
C1206      F1207   1.358       .  S
C1211      C1212   1.402       .  A
C1211      C1216   1.393       .  A
C1211      H1218   1.083       .  S
C1212      C1213   1.407       .  A
C1213      C1214   1.401       .  A
C1213      F1220   1.357       .  S
C1214      C1215   1.416       .  A
C1214      H1219   1.080       .  S
C1215      C1216   1.419       .  A
C1216      F1217   1.357       .  S
C1221      C1222   1.414       .  A
C1221      C1226   1.391       .  A
C1221      H1228   1.082       .  S
C1222      C1223   1.423       .  A
C1223      C1224   1.403       .  A
C1223      F1230   1.355       .  S
C1224      C1225   1.404       .  A
C1224      H1229   1.083       .  S
C1225      C1226   1.406       .  A
C1226      F1227   1.358       .  S
C1231      C1232   1.395       .  A
C1231      C1236   1.397       .  A
C1231      H1238   1.084       .  S
C1232      C1233   1.400       .  A
C1233      C1234   1.396       .  A
C1233      F1240   1.357       .  S
C1234      C1235   1.418       .  A
C1234      H1239   1.079       .  S
C1235      C1236   1.428       .  A
C1236      F1237   1.359       .  S
C1241      C1242   1.414       .  A
C1241      C1246   1.406       .  A
C1241      H1248   1.078       .  S
C1243      C1244   1.385       .  A
C1243      F1250   1.355       .  S
C1244      C1475   1.413       .  A
C1244      H1709   1.074       .  S
C1245      C1474   1.413   1_546  A
C1245      C1706   1.420   1_545  A
C1246      C1705   1.420       .  A
C1246      F1707   1.357       .  S
F1247      C1706   1.357   1_545  S
H1249      C1704   1.074   1_545  S
C1251      C1252   1.415       .  A
C1251      C1256   1.394       .  A
C1251      H1258   1.077       .  S
C1252      C1253   1.421       .  A
C1253      C1254   1.400       .  A
C1253      F1260   1.357       .  S
C1254      C1255   1.399       .  A
C1254      H1259   1.083       .  S
C1255      C1256   1.398       .  A
C1256      F1257   1.354       .  S
C1261      C1262   1.394       .  A
C1261      C1266   1.395       .  A
C1261      H1268   1.084       .  S
C1262      C1263   1.399       .  A
C1263      C1264   1.399       .  A
C1263      F1270   1.358       .  S
C1264      C1265   1.419       .  A
C1264      H1269   1.078       .  S
C1265      C1266   1.425       .  A
C1266      F1267   1.354       .  S
C1271      H1278   1.084       .  S
C1272      C1273   1.418       .  A
C1273      F1280   1.356       .  S
C1274      H1279   1.079       .  S
C1275      C1276   1.423       .  A
C1276      F1277   1.344       .  S
C1281      C1282   1.415       .  A
C1281      C1286   1.398       .  A
C1281      H1288   1.080       .  S
C1282      C1283   1.418       .  A
C1283      C1284   1.396       .  A
C1283      F1290   1.356       .  S
C1284      C1285   1.403       .  A
C1284      H1289   1.083       .  S
C1285      C1286   1.406       .  A
C1286      F1287   1.357       .  S
C1291      C1292   1.418       .  A
C1291      C1296   1.401       .  A
C1291      H1298   1.083       .  S
C1292      C1293   1.427       .  A
C1293      C1294   1.394       .  A
C1293      F1300   1.355   1_556  S
C1294      C1295   1.395       .  A
C1294      H1299   1.085       .  S
C1295      C1296   1.400       .  A
C1296      F1297   1.357       .  S
C1301      C1306   1.391       .  A
C1301      H1308   1.083       .  S
C1302      C1303   1.421       .  A
C1303      C1304   1.405       .  A
C1303      F1310   1.353       .  S
C1304      C1305   1.413       .  A
C1304      H1309   1.077       .  S
C1306      F1307   1.356       .  S
C1311      C1312   1.395       .  A
C1311      C1316   1.395       .  A
C1311      H1318   1.084       .  S
C1312      C1313   1.400       .  A
C1313      C1314   1.401       .  A
C1313      F1320   1.357       .  S
C1314      C1315   1.417       .  A
C1314      H1319   1.084       .  S
C1315      C1316   1.427       .  A
C1316      F1317   1.355   1_556  S
C1321      C1322   1.403       .  A
C1321      C1326   1.395       .  A
C1321      H1328   1.083       .  S
C1322      C1323   1.406       .  A
C1323      C1324   1.399       .  A
C1323      F1330   1.357       .  S
C1324      C1325   1.415       .  A
C1324      H1329   1.080       .  S
C1325      C1326   1.419       .  A
C1326      F1327   1.357       .  S
C1331      C1332   1.413   1_556  A
C1331      C1336   1.393       .  A
C1331      H1338   1.078       .  S
C1333      C1334   1.406       .  A
C1333      F1340   1.357       .  S
C1334      C1565   1.415       .  A
C1334      H1799   1.083       .  S
C1335      C1564   1.415   1_545  A
C1335      C1796   1.420   1_544  A
C1336      C1795   1.420   1_556  A
C1336      F1797   1.355       .  S
F1337      C1796   1.355   1_545  S
H1339      C1794   1.083   1_545  S
C1341      C1342   1.395       .  A
C1341      C1346   1.395       .  A
C1341      H1348   1.084       .  S
C1342      C1343   1.399       .  A
C1343      C1344   1.397       .  A
C1343      F1350   1.358       .  S
C1344      C1345   1.418       .  A
C1344      H1349   1.079       .  S
C1345      C1346   1.424       .  A
C1346      F1347   1.354       .  S
C1351      C1352   1.418       .  A
C1351      C1356   1.399       .  A
C1351      H1358   1.084       .  S
C1352      C1353   1.423       .  A
C1353      C1354   1.393       .  A
C1353      F1360   1.355       .  S
C1354      C1355   1.394       .  A
C1354      H1359   1.082       .  S
C1355      C1356   1.400       .  A
C1356      F1357   1.357       .  S
C1361      C1362   1.411       .  A
C1361      H1368   1.083   1_554  S
C1363      F1370   1.353       .  S
C1364      H1369   1.078       .  S
C1365      C1366   1.416       .  A
C1366      F1367   1.355       .  S
C1371      C1372   1.410   1_556  A
C1371      C1376   1.408       .  A
C1371      H1378   1.084       .  S
C1373      C1374   1.386       .  A
C1373      F1380   1.357       .  S
C1374      H1379   1.079       .  S
C1375      C1376   1.425       .  A
C1376      F1377   1.346       .  S
C1381      C1805   1.562       .  S
C1381      C1582   1.558   1_556  S
C1381      C1822   1.568   1_556  S
C1381      C1832   1.564   1_556  S
C1382      C1545   1.568       .  S
C1382      C1785   1.555       .  S
C1382      C1562   1.570       .  S
C1382      C1595   1.566       .  S
C1383      C1742   1.555       .  S
C1383      C1522   1.564       .  S
C1383      C1535   1.566       .  S
C1383      C1565   1.571       .  S
C1384      C1482   1.558   1_556  S
C1384      C1725   1.568       .  S
C1384      C1502   1.561   1_556  S
C1384      C1762   1.569   1_556  S
C1385      C1452   1.558       .  S
C1385      C1695   1.577       .  S
C1385      C1475   1.582       .  S
C1385      C1505   1.582       .  S
C1386      C1665   1.570       .  S
C1386      C1445   1.557       .  S
C1386      C1472   1.579       .  S
C1386      C1605   1.590       .  S
O1387     Cr1405   2.010       .  S
O1387      C1395   1.264       .  A
O1388     Cr1405   1.969       .  S
O1388      C1389   1.258       .  A
C1389      O1390   1.266       .  A
C1389      C1432   1.466       .  S
O1390     Cr1406   2.016       .  S
O1391     Cr1406   1.969       .  S
O1391      C1392   1.259       .  A
C1392      O1393   1.267       .  A
C1392      C1552   1.484       .  S
O1393     Cr1407   2.016       .  S
O1394     Cr1407   1.981       .  S
O1394      C1395   1.260       .  A
C1395      C1485   1.469       .  S
O1396     Cr1405   1.968       .  S
O1396      C1404   1.260       .  A
O1397     Cr1405   2.021       .  S
O1397      C1398   1.269       .  A
C1398      O1399   1.260       .  A
C1398      C1442   1.486       .  S
O1399     Cr1406   1.965       .  S
O1400     Cr1406   2.018       .  S
O1400      C1401   1.267       .  A
C1401      O1402   1.259       .  A
C1401      C1542   1.470       .  S
O1402     Cr1407   1.973       .  S
O1403     Cr1407   2.012       .  S
O1403      C1404   1.268       .  A
C1404      C1492   1.469       .  S
Cr1405     O1408   1.771       .  S
Cr1406     O1408   1.770       .  S
Cr1407     O1408   1.765       .  S
O1409     Cr1427   1.977       .  S
O1409      C1417   1.260       .  A
O1410     Cr1427   2.017       .  S
O1410      C1411   1.268       .  A
C1411      O1412   1.258       .  A
C1411      C1515   1.483       .  S
O1412     Cr1428   1.966       .  S
O1413     Cr1428   2.016       .  S
O1413      C1414   1.266       .  A
C1414      O1415   1.258       .  A
C1414      C1462   1.468       .  S
O1415     Cr1429   1.973       .  S
O1416     Cr1429   2.008       .  S
O1416      C1417   1.263       .  A
C1417      C1585   1.464       .  S
O1418     Cr1427   2.009       .  S
O1418      C1426   1.267       .  A
O1419     Cr1427   1.970       .  S
O1419      C1420   1.258       .  A
C1420      O1421   1.267       .  A
C1420      C1525   1.469       .  S
O1421     Cr1428   2.020       .  S
O1422     Cr1428   1.962       .  S
O1422      C1423   1.258       .  A
C1423      O1424   1.270       .  A
C1423      C1455   1.486       .  S
O1424     Cr1429   2.024       .  S
O1425     Cr1429   1.968       .  S
O1425      C1426   1.261       .  A
C1426      C1572   1.466       .  S
Cr1427     O1430   1.764       .  S
Cr1428     O1430   1.768       .  S
Cr1429     O1430   1.771       .  S
C1431      C1432   1.396       .  A
C1431      C1436   1.399       .  A
C1431      H1438   1.083       .  S
C1432      C1433   1.397       .  A
C1433      C1434   1.392       .  A
C1433      F1440   1.354       .  S
C1434      C1435   1.416       .  A
C1434      H1439   1.078       .  S
C1435      C1616   1.570   1_554  S
C1435      C1436   1.428       .  A
C1436      F1437   1.358       .  S
C1441      C1442   1.402       .  A
C1441      C1446   1.393       .  A
C1441      H1448   1.083       .  S
C1442      C1443   1.407       .  A
C1443      C1444   1.401       .  A
C1443      F1450   1.357       .  S
C1444      C1445   1.416       .  A
C1444      H1449   1.080       .  S
C1445      C1446   1.419       .  A
C1446      F1447   1.357       .  S
C1451      C1452   1.414       .  A
C1451      C1456   1.391       .  A
C1451      H1458   1.082       .  S
C1452      C1453   1.423       .  A
C1453      C1454   1.403       .  A
C1453      F1460   1.355       .  S
C1454      C1455   1.404       .  A
C1454      H1459   1.083       .  S
C1455      C1456   1.406       .  A
C1456      F1457   1.358       .  S
C1461      C1462   1.395       .  A
C1461      C1466   1.397       .  A
C1461      H1468   1.083       .  S
C1462      C1463   1.400       .  A
C1463      C1464   1.396       .  A
C1463      F1470   1.357       .  S
C1464      C1465   1.418       .  A
C1464      H1469   1.079       .  S
C1465      C1615   1.577   1_554  S
C1465      C1466   1.428       .  A
C1466      F1467   1.359       .  S
C1471      C1472   1.414       .  A
C1471      C1476   1.406       .  A
C1471      H1478   1.078       .  S
C1472      C1703   1.423       .  A
C1473      C1702   1.423   1_554  A
C1473      C1474   1.385       .  A
C1473      F1480   1.355       .  S
C1481      C1482   1.415       .  A
C1481      C1486   1.394       .  A
C1481      H1488   1.077       .  S
C1482      C1483   1.421       .  A
C1483      C1484   1.400       .  A
C1483      F1490   1.357       .  S
C1484      C1485   1.399       .  A
C1484      H1489   1.083       .  S
C1485      C1486   1.398       .  A
C1486      F1487   1.354       .  S
C1491      C1492   1.394       .  A
C1491      C1496   1.395       .  A
C1491      H1498   1.084       .  S
C1492      C1493   1.399       .  A
C1493      C1494   1.399       .  A
C1493      F1500   1.358       .  S
C1494      C1495   1.419       .  A
C1494      H1499   1.078       .  S
C1495      C1614   1.568       .  S
C1495      C1496   1.425       .  A
C1496      F1497   1.354       .  S
C1501      C1732   1.409       .  A
C1501      H1508   1.084       .  S
C1502      C1731   1.409   1_554  A
C1502      C1503   1.418       .  A
C1503      F1510   1.356       .  S
C1504      C1735   1.417   1_554  A
C1504      H1509   1.079       .  S
C1505      C1734   1.417       .  A
C1505      C1506   1.423       .  A
C1506      F1507   1.344       .  S
C1511      C1512   1.415       .  A
C1511      C1516   1.398       .  A
C1511      H1518   1.080       .  S
C1512      C1613   1.555       .  S
C1512      C1513   1.418       .  A
C1513      C1514   1.396       .  A
C1513      F1520   1.356       .  S
C1514      C1515   1.403       .  A
C1514      H1519   1.083       .  S
C1515      C1516   1.406       .  A
C1516      F1517   1.357       .  S
C1521      C1522   1.418       .  A
C1521      C1526   1.401       .  A
C1521      H1528   1.083       .  S
C1522      C1523   1.427       .  A
C1523      C1524   1.394       .  A
C1523      F1530   1.355       .  S
C1524      C1525   1.395       .  A
C1524      H1529   1.085       .  S
C1525      C1526   1.400       .  A
C1526      F1527   1.357       .  S
C1531      C1762   1.411       .  A
C1531      C1536   1.391       .  A
C1531      H1538   1.083       .  S
C1532      C1614   1.569       .  S
C1532      C1761   1.411       .  A
C1532      C1533   1.421       .  A
C1533      C1534   1.405       .  A
C1533      F1540   1.353       .  S
C1534      C1535   1.413       .  A
C1534      H1539   1.077       .  S
C1535      C1766   1.417       .  A
C1536      C1765   1.417       .  A
C1536      F1537   1.356       .  S
C1541      C1542   1.395       .  A
C1541      C1546   1.395       .  A
C1541      H1548   1.084       .  S
C1542      C1543   1.400       .  A
C1543      C1544   1.401       .  A
C1543      F1550   1.357       .  S
C1544      C1545   1.418       .  A
C1544      H1549   1.084       .  S
C1545      C1546   1.427       .  A
C1546      F1547   1.355       .  S
C1551      C1552   1.403       .  A
C1551      C1556   1.395       .  A
C1551      H1558   1.083       .  S
C1552      C1553   1.406       .  A
C1553      C1554   1.399       .  A
C1553      F1560   1.357       .  S
C1554      C1555   1.415       .  A
C1554      H1559   1.080       .  S
C1555      C1612   1.555       .  S
C1555      C1556   1.419       .  A
C1556      F1557   1.357       .  S
C1561      C1562   1.413       .  A
C1561      C1566   1.393       .  A
C1561      H1568   1.078       .  S
C1562      C1793   1.416       .  A
C1563      C1792   1.416       .  A
C1563      C1564   1.406       .  A
C1563      F1570   1.357       .  S
C1571      C1572   1.395       .  A
C1571      C1576   1.395       .  A
C1571      H1578   1.084       .  S
C1572      C1573   1.399       .  A
C1573      C1574   1.397       .  A
C1573      F1580   1.358       .  S
C1574      C1575   1.418       .  A
C1574      H1579   1.079       .  S
C1575      C1611   1.562       .  S
C1575      C1576   1.424       .  A
C1576      F1577   1.354       .  S
C1581      C1582   1.418       .  A
C1581      C1586   1.399       .  A
C1581      H1588   1.083       .  S
C1582      C1583   1.423       .  A
C1583      C1584   1.393       .  A
C1583      F1590   1.355   1_554  S
C1584      C1585   1.394       .  A
C1584      H1589   1.082       .  S
C1585      C1586   1.400       .  A
C1586      F1587   1.357       .  S
C1591      C1592   1.411       .  A
C1591      H1598   1.083       .  S
C1592      C1611   1.568       .  S
C1592      C1823   1.420       .  A
C1593      C1822   1.420       .  A
C1593      F1600   1.353       .  S
C1594      C1825   1.414       .  A
C1594      H1599   1.078       .  S
C1595      C1824   1.414       .  A
C1595      C1596   1.416       .  A
C1596      F1597   1.355       .  S
C1601      C1602   1.410       .  A
C1601      C1606   1.408       .  A
C1601      H1608   1.083       .  S
C1602      C1611   1.564       .  S
C1602      C1833   1.418       .  A
C1603      C1832   1.418       .  A
C1603      C1604   1.386       .  A
C1603      F1610   1.356       .  S
C1604      C1835   1.419   1_554  A
C1604      H1609   1.079       .  S
C1605      C1834   1.419       .  A
C1605      C1606   1.425       .  A
C1606      F1607   1.346       .  S
C1611      C1812   1.558       .  S
C1612      C1775   1.568   1_554  S
C1612      C1792   1.570       .  S
C1612      C1825   1.566       .  S
C1613      C1752   1.564   1_554  S
C1613      C1765   1.566       .  S
C1613      C1795   1.571       .  S
C1614      C1712   1.558       .  S
C1614      C1732   1.561       .  S
C1615      C1682   1.558       .  S
C1615      C1705   1.582       .  S
C1615      C1735   1.582       .  S
C1616      C1675   1.557       .  S
C1616      C1702   1.580       .  S
C1616      C1835   1.590       .  S
O1617     Cr1635   2.010       .  S
O1617      C1625   1.264       .  A
O1618     Cr1635   1.969       .  S
O1618      C1619   1.258       .  A
C1619      O1620   1.266       .  A
C1619      C1662   1.467       .  S
O1620     Cr1636   2.016       .  S
O1621     Cr1636   1.969       .  S
O1621      C1622   1.259       .  A
C1622      O1623   1.267       .  A
C1622      C1782   1.484       .  S
O1623     Cr1637   2.016       .  S
O1624     Cr1637   1.981       .  S
O1624      C1625   1.260       .  A
C1625      C1715   1.469       .  S
O1626     Cr1635   1.968       .  S
O1626      C1634   1.260       .  A
O1627     Cr1635   2.021       .  S
O1627      C1628   1.269       .  A
C1628      O1629   1.260       .  A
C1628      C1672   1.486       .  S
O1629     Cr1636   1.965       .  S
O1630     Cr1636   2.018       .  S
O1630      C1631   1.267       .  A
C1631      O1632   1.259       .  A
C1631      C1772   1.470       .  S
O1632     Cr1637   1.973       .  S
O1633     Cr1637   2.012       .  S
O1633      C1634   1.268       .  A
C1634      C1722   1.469       .  S
Cr1635     O1638   1.771       .  S
Cr1636     O1638   1.770       .  S
Cr1637     O1638   1.765       .  S
O1639     Cr1657   1.977       .  S
O1639      C1647   1.260       .  A
O1640     Cr1657   2.017       .  S
O1640      C1641   1.268       .  A
C1641      O1642   1.258       .  A
C1641      C1745   1.483       .  S
O1642     Cr1658   1.966       .  S
O1643     Cr1658   2.016       .  S
O1643      C1644   1.266       .  A
C1644      O1645   1.258       .  A
C1644      C1692   1.468       .  S
O1645     Cr1659   1.973       .  S
O1646     Cr1659   2.008       .  S
O1646      C1647   1.263       .  A
C1647      C1815   1.464       .  S
O1648     Cr1657   2.009       .  S
O1648      C1656   1.267       .  A
O1649     Cr1657   1.970       .  S
O1649      C1650   1.258       .  A
C1650      O1651   1.267       .  A
C1650      C1755   1.469       .  S
O1651     Cr1658   2.020       .  S
O1652     Cr1658   1.962       .  S
O1652      C1653   1.258       .  A
C1653      O1654   1.270       .  A
C1653      C1685   1.486       .  S
O1654     Cr1659   2.024       .  S
O1655     Cr1659   1.968       .  S
O1655      C1656   1.261       .  A
C1656      C1802   1.466       .  S
Cr1657     O1660   1.764       .  S
Cr1658     O1660   1.768       .  S
Cr1659     O1660   1.771       .  S
C1661      C1662   1.396       .  A
C1661      C1666   1.399       .  A
C1661      H1668   1.083       .  S
C1662      C1663   1.397       .  A
C1663      C1664   1.392       .  A
C1663      F1670   1.354       .  S
C1664      C1665   1.416       .  A
C1664      H1669   1.078       .  S
C1665      C1666   1.428       .  A
C1666      F1667   1.358       .  S
C1671      C1672   1.402       .  A
C1671      C1676   1.393       .  A
C1671      H1678   1.083       .  S
C1672      C1673   1.407       .  A
C1673      C1674   1.401       .  A
C1673      F1680   1.357       .  S
C1674      C1675   1.416       .  A
C1674      H1679   1.080       .  S
C1675      C1676   1.419       .  A
C1676      F1677   1.357       .  S
C1681      C1682   1.414       .  A
C1681      C1686   1.391       .  A
C1681      H1688   1.082       .  S
C1682      C1683   1.423       .  A
C1683      C1684   1.403       .  A
C1683      F1690   1.355       .  S
C1684      C1685   1.404       .  A
C1684      H1689   1.083       .  S
C1685      C1686   1.406       .  A
C1686      F1687   1.358       .  S
C1691      C1692   1.395       .  A
C1691      C1696   1.397       .  A
C1691      H1698   1.083       .  S
C1692      C1693   1.400       .  A
C1693      C1694   1.396       .  A
C1693      F1700   1.357       .  S
C1694      C1695   1.418       .  A
C1694      H1699   1.079       .  S
C1695      C1696   1.428       .  A
C1696      F1697   1.359       .  S
C1701      C1702   1.414       .  A
C1701      C1706   1.406       .  A
C1701      H1708   1.078       .  S
C1703      C1704   1.385       .  A
C1703      F1710   1.355       .  S
C1711      C1712   1.415       .  A
C1711      C1716   1.394       .  A
C1711      H1718   1.077       .  S
C1712      C1713   1.421       .  A
C1713      C1714   1.400       .  A
C1713      F1720   1.357       .  S
C1714      C1715   1.399       .  A
C1714      H1719   1.083       .  S
C1715      C1716   1.398       .  A
C1716      F1717   1.354       .  S
C1721      C1722   1.394       .  A
C1721      C1726   1.395       .  A
C1721      H1728   1.084       .  S
C1722      C1723   1.399       .  A
C1723      C1724   1.399       .  A
C1723      F1730   1.358       .  S
C1724      C1725   1.419       .  A
C1724      H1729   1.078       .  S
C1725      C1726   1.425       .  A
C1726      F1727   1.354       .  S
C1731      H1738   1.084       .  S
C1732      C1733   1.418       .  A
C1733      F1740   1.356       .  S
C1734      H1739   1.079       .  S
C1735      C1736   1.423       .  A
C1736      F1737   1.344       .  S
C1741      C1742   1.415       .  A
C1741      C1746   1.398       .  A
C1741      H1748   1.080       .  S
C1742      C1743   1.418       .  A
C1743      C1744   1.396       .  A
C1743      F1750   1.356       .  S
C1744      C1745   1.403       .  A
C1744      H1749   1.083       .  S
C1745      C1746   1.406       .  A
C1746      F1747   1.357       .  S
C1751      C1752   1.418       .  A
C1751      C1756   1.401       .  A
C1751      H1758   1.083       .  S
C1752      C1753   1.427       .  A
C1753      C1754   1.394       .  A
C1753      F1760   1.355   1_556  S
C1754      C1755   1.395       .  A
C1754      H1759   1.085       .  S
C1755      C1756   1.400       .  A
C1756      F1757   1.357       .  S
C1761      C1766   1.391       .  A
C1761      H1768   1.083       .  S
C1762      C1763   1.421       .  A
C1763      C1764   1.405       .  A
C1763      F1770   1.353       .  S
C1764      C1765   1.413       .  A
C1764      H1769   1.076       .  S
C1766      F1767   1.356       .  S
C1771      C1772   1.395       .  A
C1771      C1776   1.395       .  A
C1771      H1778   1.084       .  S
C1772      C1773   1.400       .  A
C1773      C1774   1.401       .  A
C1773      F1780   1.357       .  S
C1774      C1775   1.417       .  A
C1774      H1779   1.083       .  S
C1775      C1776   1.427       .  A
C1776      F1777   1.355   1_556  S
C1781      C1782   1.403       .  A
C1781      C1786   1.395       .  A
C1781      H1788   1.084       .  S
C1782      C1783   1.406       .  A
C1783      C1784   1.399       .  A
C1783      F1790   1.357       .  S
C1784      C1785   1.415       .  A
C1784      H1789   1.080       .  S
C1785      C1786   1.419       .  A
C1786      F1787   1.357       .  S
C1791      C1792   1.413   1_556  A
C1791      C1796   1.393       .  A
C1791      H1798   1.078       .  S
C1793      C1794   1.406       .  A
C1793      F1800   1.357       .  S
C1801      C1802   1.395       .  A
C1801      C1806   1.395       .  A
C1801      H1808   1.084       .  S
C1802      C1803   1.399       .  A
C1803      C1804   1.397       .  A
C1803      F1810   1.358       .  S
C1804      C1805   1.418       .  A
C1804      H1809   1.079       .  S
C1805      C1806   1.424       .  A
C1806      F1807   1.354       .  S
C1811      C1812   1.418       .  A
C1811      C1816   1.399       .  A
C1811      H1818   1.084       .  S
C1812      C1813   1.423       .  A
C1813      C1814   1.393       .  A
C1813      F1820   1.355       .  S
C1814      C1815   1.394       .  A
C1814      H1819   1.082       .  S
C1815      C1816   1.400       .  A
C1816      F1817   1.357       .  S
C1821      C1822   1.411       .  A
C1821      H1828   1.083   1_554  S
C1823      F1830   1.353       .  S
C1824      H1829   1.077       .  S
C1825      C1826   1.416       .  A
C1826      F1827   1.355       .  S
C1831      C1832   1.410   1_556  A
C1831      C1836   1.408       .  A
C1831      H1838   1.083       .  S
C1833      C1834   1.386       .  A
C1833      F1840   1.357       .  S
C1834      H1839   1.079       .  S
C1835      C1836   1.425       .  A
C1836      F1837   1.346       .  S
