geometry optimzed in LAMMPS
_audit_creation_date              2020-11-30 
_audit_creation_method            'lammps2cif' 
_symmetry_space_group_name_H-M    'P1' 
_symmetry_Int_Tables_number       1 
_symmetry_cell_setting            triclinic 
loop_ 
_symmetry_equiv_pos_as_xyz 
  x,y,z 
_cell_length_a                    28.03310921 
_cell_length_b                    27.920204935692716 
_cell_length_c                    27.938336635053968 
_cell_angle_alpha                 90.00749650226096 
_cell_angle_beta                  89.90326234966544 
_cell_angle_gamma                 89.95801596007257 
loop_ 
_atom_site_label 
_atom_site_type_symbol 
_atom_site_fract_x 
_atom_site_fract_y 
_atom_site_fract_z 
_atom_site_charge 
O1          O  0.99856475  0.07824195  0.13536715    -0.80600
O2          O  0.99835254  0.08050973  0.86353621    -0.84100
O3          O  0.07579602  0.13812725  0.00180812    -0.79200
O4          O  0.91951000  0.13494828  0.00170446    -0.77500
O5          O  0.86320128  0.07566372  0.00253489    -0.79300
O6          O  0.13467920  0.08150032  0.99976080    -0.80300
O7          O  0.99867914  0.13780929  0.92215440    -0.81600
O8          O  0.99675072  0.13637167  0.07775322    -0.81900
Eu9        Eu  0.99836595  0.09689436  0.99954219     2.39200
O10         O  0.94994689  0.04829113  0.95069286    -0.89400
O11         O  0.04832719  0.04939032  0.04741637    -0.93000
C12         C  0.99655030  0.12238871  0.12172295     1.01700
C13         C  0.99909963  0.12449184  0.87798766     1.01500
C14         C  0.12002764  0.12527444  0.00190489     1.01500
C15         C  0.87596683  0.12007557  0.00352515     0.99300
H16         H  0.06721662  0.07063423  0.93010156     0.29100
O17         O  0.04774505  0.05014303  0.94995655    -1.01800
H18         H  0.93123427  0.06600689  0.06838357     0.29100
O19         O  0.95146929  0.04672425  0.04804825    -1.04300
O20         O  0.00103093  0.92215729  0.86198096    -0.81500
O21         O  0.00226724  0.92054234  0.13492834    -0.81100
O22         O  0.13516116  0.00200134  0.91847032    -0.79500
O23         O  0.86342183  0.99761222  0.92102423    -0.82900
O24         O  0.86550516  0.99482372  0.07905310    -0.80700
O25         O  0.13777947  0.00584816  0.07601174    -0.79400
O26         O  0.08275143  0.86548139  0.99741401    -0.80900
O27         O  0.92550737  0.86120648  0.99882251    -0.82800
O28         O  0.13883469  0.92475210  0.99690163    -0.79500
O29         O  0.86625234  0.91768354  0.99763859    -0.82200
O30         O  0.07690757  0.00098698  0.86117921    -0.78000
O31         O  0.08067658  0.00354833  0.13462755    -0.78000
O32         O  0.92356068  0.99773193  0.13655274    -0.77600
O33         O  0.92095327  0.99798159  0.86316342    -0.81100
O34         O  0.00268438  0.86381506  0.91950724    -0.80600
O35         O  0.00464556  0.86291443  0.07660265    -0.78900
Eu36       Eu  0.99947378  0.00086518  0.90180296     2.39800
Eu37       Eu  0.00154492  0.99946059  0.09615732     2.39600
Eu38       Eu  0.09733398  0.00218202  0.99798136     2.38400
Eu39       Eu  0.90358575  0.99752966  0.99954879     2.39900
Eu40       Eu  0.00306985  0.90277355  0.99838299     2.39800
O41         O  0.95372225  0.94996128  0.04765297    -0.93300
O42         O  0.04958555  0.95293493  0.94948443    -0.92200
C43         C  0.00208236  0.87792095  0.87549823     1.01900
C44         C  0.00394092  0.87658233  0.12070926     1.00600
C45         C  0.12092289  0.00091555  0.87454177     1.00000
C46         C  0.87697358  0.99742659  0.87675023     1.02000
C47         C  0.87957052  0.99549566  0.12307466     1.00900
C48         C  0.12447837  0.00622134  0.12028802     0.99800
C49         C  0.12643632  0.88027466  0.99728811     0.99800
C50         C  0.88116378  0.87388124  0.99817229     1.02400
H51         H  0.07161555  0.93260310  0.06688812     0.29800
O52         O  0.05097592  0.95198419  0.04715398    -1.05500
H53         H  0.93360130  0.93024115  0.93062202     0.31900
O54         O  0.95308968  0.95055339  0.95055203    -1.08000
O55         O  0.00200540  0.42203068  0.36099480    -0.80600
O56         O  0.99972076  0.42137461  0.63491793    -0.82100
O57         O  0.08155085  0.36446379  0.49763301    -0.79200
O58         O  0.92536647  0.36039227  0.49917812    -0.77500
O59         O  0.86637281  0.41705199  0.49606472    -0.79300
O60         O  0.13761209  0.42391388  0.49942578    -0.80300
O61         O  0.00264241  0.36346285  0.57719287    -0.81600
O62         O  0.00095849  0.36405377  0.41899259    -0.81900
Eu63       Eu  0.00225613  0.40239539  0.49802326     2.39200
O64         O  0.95134573  0.44932335  0.54578360    -0.89400
O65         O  0.05042116  0.45223438  0.45008407    -0.93000
C66         C  0.00067409  0.37798695  0.37496082     1.01700
C67         C  0.00194614  0.37733580  0.62130004     1.01500
C68         C  0.12515682  0.37940100  0.49875280     1.01500
C69         C  0.88115521  0.37326143  0.49800152     0.99300
H70         H  0.06868516  0.43234670  0.56765959     0.29100
O71         O  0.04859126  0.45188998  0.54750018    -1.01800
H72         H  0.93381288  0.42984270  0.42863086     0.29100
O73         O  0.95314756  0.45001161  0.44889159    -1.04300
O74         O  0.99648280  0.57712547  0.63461127    -0.81500
O75         O  0.99980818  0.57872679  0.36208840    -0.81100
O76         O  0.13376199  0.50420240  0.58022196    -0.79500
O77         O  0.86140655  0.49472806  0.57430384    -0.82900
O78         O  0.86430775  0.49764975  0.41799301    -0.80700
O79         O  0.13698500  0.50448909  0.42200055    -0.79400
O80         O  0.07498570  0.63787708  0.49988747    -0.80900
O81         O  0.91838042  0.63402480  0.49460567    -0.82800
O82         O  0.13427971  0.58138247  0.49957486    -0.79500
O83         O  0.86166987  0.57497697  0.49480833    -0.82200
O84         O  0.07461906  0.49945966  0.63675835    -0.78000
O85         O  0.08002631  0.50409902  0.36333509    -0.78000
O86         O  0.92298656  0.50097554  0.36115684    -0.77600
O87         O  0.91821013  0.49398332  0.63272402    -0.81100
O88         O  0.99809622  0.63568962  0.57754954    -0.80600
O89         O  0.99834306  0.63633064  0.42027674    -0.78900
Eu90       Eu  0.99752316  0.49903392  0.59501832     2.39800
Eu91       Eu  0.00110108  0.50015358  0.40134102     2.39600
Eu92       Eu  0.09667162  0.50189018  0.50006228     2.38400
Eu93       Eu  0.90274267  0.49726563  0.49684679     2.39900
Eu94       Eu  0.99748833  0.59666594  0.49878616     2.39800
O95         O  0.95087891  0.54727639  0.44939017    -0.93300
O96         O  0.04607594  0.54899563  0.54797835    -0.92200
C97         C  0.99812978  0.62133233  0.62149034     1.01900
C98         C  0.99949886  0.62276040  0.37612584     1.00600
C99         C  0.11879935  0.50200367  0.62396916     1.00000
C100        C  0.87436390  0.49283747  0.61853876     1.02000
C101        C  0.87878573  0.49915984  0.37413774     1.00900
C102        C  0.12369832  0.50567582  0.37778999     0.99800
C103        C  0.11925915  0.62510387  0.49988992     0.99800
C104        C  0.87479797  0.61924716  0.49318306     1.02400
H105        H  0.06735825  0.57008224  0.43134795     0.29800
O106        O  0.04774728  0.54942387  0.45089027    -1.05500
H107        H  0.92792826  0.56679468  0.56635496     0.31900
O108        O  0.94859998  0.54736286  0.54661524    -1.08000
O109        O  0.63655152  0.99767032  0.42214164    -0.80600
O110        O  0.36459648  0.00513547  0.41937042    -0.82100
O111        O  0.50132152  0.92481600  0.35974302    -0.79200
O112        O  0.50052140  0.08267644  0.36775804    -0.77500
O113        O  0.50163018  0.13815992  0.42810472    -0.79300
O114        O  0.49661431  0.86475912  0.41540470    -0.80300
O115        O  0.42312549  0.00572524  0.36222350    -0.81600
O116        O  0.57982973  0.00090560  0.36344745    -0.81900
Eu117      Eu  0.50097005  0.00199556  0.40247865     2.39200
O118        O  0.45351275  0.04978001  0.45286085    -0.89400
O119        O  0.54742089  0.95096131  0.45003231    -0.93000
C120        C  0.62356382  0.99857751  0.37781840     1.01700
C121        C  0.37898737  0.00693953  0.37549093     1.01500
C122        C  0.49932967  0.88024285  0.37197050     1.01500
C123        C  0.50097899  0.12613297  0.38353432     0.99300
H124        H  0.43016677  0.93381009  0.42716236     0.29100
O125        O  0.45034710  0.95247013  0.44801278    -1.01800
H126        H  0.56988452  0.06844802  0.43454752     0.29100
O127        O  0.54950841  0.04808450  0.45359765    -1.04300
O128        O  0.36287968  0.99945151  0.57617567    -0.81500
O129        O  0.63515649  0.99068650  0.57951813    -0.81100
O130        O  0.41718090  0.86475060  0.49549298    -0.79500
O131        O  0.42482572  0.13771764  0.50218644    -0.82900
O132        O  0.57971736  0.13380911  0.50446179    -0.80700
O133        O  0.57488356  0.86029115  0.49143898    -0.79400
O134        O  0.49657484  0.91356354  0.63274987    -0.80900
O135        O  0.49993112  0.06902899  0.64119403    -0.82800
O136        O  0.49602404  0.85830721  0.57236850    -0.79500
O137        O  0.50205726  0.12984795  0.58609220    -0.82200
O138        O  0.36082330  0.92403270  0.49708148    -0.78000
O139        O  0.63324428  0.91720742  0.49315481    -0.78000
O140        O  0.63669665  0.07552813  0.50410911    -0.77600
O141        O  0.36642432  0.08082661  0.49747372    -0.81100
O142        O  0.41923938  0.99324783  0.63496892    -0.80600
O143        O  0.57640256  0.99061550  0.63659489    -0.78900
Eu144      Eu  0.40302930  0.00082160  0.49823489     2.39800
Eu145      Eu  0.59650528  0.99672514  0.50061881     2.39600
Eu146      Eu  0.49718346  0.90114340  0.49543650     2.38400
Eu147      Eu  0.50152263  0.09524281  0.50459703     2.39900
Eu148      Eu  0.49836869  0.99362567  0.59666539     2.39800
O149        O  0.54868366  0.04382615  0.55147770    -0.93300
O150        O  0.44930371  0.94875240  0.54542070    -0.92200
C151        C  0.37560596  0.99588485  0.62036147     1.01900
C152        C  0.62053628  0.98929943  0.62338716     1.00600
C153        C  0.37354712  0.87962400  0.49684722     1.00000
C154        C  0.38074456  0.12470672  0.49951682     1.02000
C155        C  0.62352542  0.11998174  0.50478103     1.00900
C156        C  0.61903769  0.87330956  0.49012195     0.99800
C157        C  0.49630659  0.87008650  0.61706240     0.99800
C158        C  0.50124611  0.11361281  0.62940807     1.02400
H159        H  0.56599436  0.92494275  0.56528947     0.29800
O160        O  0.54663046  0.94635837  0.54634273    -1.05500
H161        H  0.43137424  0.06562013  0.57087507     0.31900
O162        O  0.45114863  0.04599107  0.55039836    -1.08000
O163        O  0.41891405  0.36348732  0.00792655    -0.80600
O164        O  0.42362410  0.63620520  0.99645615    -0.82100
O165        O  0.36384712  0.50100765  0.07953482    -0.79200
O166        O  0.36265416  0.50205513  0.92249352    -0.77500
O167        O  0.41999169  0.49803039  0.86487237    -0.79300
O168        O  0.42180930  0.50232964  0.13711010    -0.80300
O169        O  0.36481511  0.57947495  0.00103354    -0.81600
O170        O  0.36226669  0.42248840  0.00378322    -0.81900
Eu171      Eu  0.40280988  0.50020953  0.00080849     2.39200
O172        O  0.45184874  0.54626733  0.95041118    -0.89400
O173        O  0.45042429  0.45196676  0.05050009    -0.93000
C174        C  0.37531153  0.37829004  0.00704907     1.01700
C175        C  0.37946737  0.62323589  0.99899338     1.01500
C176        C  0.37784319  0.50236126  0.12348707     1.01500
C177        C  0.37602821  0.50118412  0.87819553     0.99300
H178        H  0.43301905  0.57012777  0.06735608     0.29100
O179        O  0.45238897  0.54930421  0.04771301    -1.01800
H180        H  0.42903548  0.42875399  0.93418092     0.29100
O181        O  0.44963568  0.44875986  0.95333399    -1.04300
O182        O  0.58058939  0.63404930  0.99762456    -0.81500
O183        O  0.57561607  0.36013896  0.00379890    -0.81100
O184        O  0.50227569  0.58072786  0.13395745    -0.79500
O185        O  0.49898538  0.57185821  0.86078597    -0.82900
O186        O  0.49691109  0.41477675  0.86670611    -0.80700
O187        O  0.49729290  0.42326567  0.13937401    -0.79400
O188        O  0.63565401  0.49870410  0.07811392    -0.80900
O189        O  0.63514760  0.49275156  0.92021721    -0.82800
O190        O  0.57827142  0.49971800  0.13657273    -0.79500
O191        O  0.57693551  0.49307984  0.86276322    -0.82200
O192        O  0.50292854  0.63684809  0.07424313    -0.78000
O193        O  0.49658734  0.36390496  0.08296721    -0.78000
O194        O  0.49480431  0.35888018  0.92634832    -0.77600
O195        O  0.50201883  0.63187001  0.91661188    -0.81100
O196        O  0.63732129  0.57507919  0.99826635    -0.80600
O197        O  0.63439842  0.41702522  0.00244291    -0.78900
Eu198      Eu  0.50152875  0.59540981  0.99695789     2.39800
Eu199      Eu  0.49786716  0.40110281  0.00331602     2.39600
Eu200      Eu  0.49997456  0.50075936  0.09733442     2.38400
Eu201      Eu  0.49895089  0.49496431  0.90321099     2.39900
Eu202      Eu  0.59663135  0.49658502  0.99945195     2.39800
O203        O  0.54710801  0.44705458  0.95280015    -0.93300
O204        O  0.54897464  0.54714673  0.04690052    -0.92200
C205        C  0.62437426  0.61955367  0.99831258     1.01900
C206        C  0.61981140  0.37317718  0.00408535     1.00600
C207        C  0.50344349  0.62436035  0.11869391     1.00000
C208        C  0.50067552  0.61637449  0.87304937     1.02000
C209        C  0.49471813  0.37112296  0.88178157     1.00900
C210        C  0.49688972  0.37877644  0.12670195     0.99800
C211        C  0.62207459  0.49902143  0.12229555     0.99800
C212        C  0.62096934  0.49206447  0.87624049     1.02400
H213        H  0.56718221  0.43026610  0.07047259     0.29800
O214        O  0.54769693  0.45005730  0.05001458    -1.05500
H215        H  0.56900168  0.56350139  0.92888612     0.31900
O216        O  0.54886576  0.54448753  0.94952973    -1.08000
C217        C  0.52383325  0.24205893  0.31595503    -0.11800
C218        C  0.49316855  0.23633366  0.27672314     0.14700
C219        C  0.46561084  0.19424905  0.27268265     0.01600
C220        C  0.46905413  0.15909503  0.30806084    -0.16200
C221        C  0.49941564  0.16476927  0.34754623    -0.11000
C222        C  0.52761906  0.20652985  0.35128611     0.08300
C223        C  0.49353501  0.27323656  0.23887420     0.09400
S224        S  0.42618479  0.18235976  0.22301573    -0.25300
H225        H  0.44749312  0.12703035  0.30488526     0.19600
S226        S  0.57085806  0.21336082  0.39880109    -0.31000
H227        H  0.54557626  0.27402376  0.31815446     0.09900
C228        C  0.46738917  0.31608274  0.24339731     0.03100
C229        C  0.46922873  0.35013786  0.20643156    -0.13300
C230        C  0.49694657  0.34220285  0.16513566    -0.09000
C231        C  0.52374248  0.29932332  0.16141028     0.06600
C232        C  0.52115927  0.26518774  0.19789893    -0.14100
S233        S  0.43108157  0.32677848  0.29581552    -0.31000
H234        H  0.44862332  0.38282092  0.20942378     0.10800
S235        S  0.56401462  0.28698474  0.11251915    -0.28100
H236        H  0.54170379  0.23241560  0.19486326     0.08100
H237        H  0.59203684  0.25568373  0.38165122     0.26500
H238        H  0.41132373  0.37046710  0.28044363     0.21300
H239        H  0.58107474  0.33423994  0.10898141     0.26600
H240        H  0.41977683  0.22981622  0.20775299     0.15500
C241        C  0.53299418  0.80949716  0.26076448    -0.11800
C242        C  0.49769012  0.77399781  0.26086434     0.14700
C243        C  0.46320530  0.77337030  0.29768638     0.01600
C244        C  0.46491689  0.80809585  0.33376629    -0.16200
C245        C  0.49999153  0.84398559  0.33354483    -0.11000
C246        C  0.53483702  0.84415299  0.29689781     0.08300
C247        C  0.49957951  0.73644005  0.22373480     0.09400
S248        S  0.41699324  0.72858775  0.30110209    -0.25300
H249        H  0.43825360  0.80751781  0.36190833     0.19600
S250        S  0.58415862  0.88560068  0.29584511    -0.31000
H251        H  0.56004777  0.80937950  0.23299562     0.09900
C252        C  0.47593119  0.74197298  0.17969520     0.03100
C253        C  0.47794592  0.70494100  0.14588069    -0.13300
C254        C  0.50458451  0.66316231  0.15462165    -0.09000
C255        C  0.53091298  0.65935548  0.19761357     0.06600
C256        C  0.52711571  0.69542412  0.23214890    -0.14100
S257        S  0.44274577  0.79593430  0.16695735    -0.31000
H258        H  0.45816674  0.70826073  0.11278391     0.10800
S259        S  0.57230897  0.61122540  0.20921178    -0.28100
H260        H  0.54675903  0.69214484  0.26537162     0.08100
H261        H  0.58965939  0.88784695  0.34583025     0.26500
H262        H  0.43306524  0.78537562  0.11869965     0.21300
H263        H  0.58795231  0.60701424  0.16148423     0.26600
H264        H  0.40950746  0.72508293  0.25152416     0.15500
C265        C  0.51514390  0.75063829  0.68037601    -0.11800
C266        C  0.49092523  0.75864643  0.72358586     0.14700
C267        C  0.46911135  0.80346633  0.73189716     0.01600
C268        C  0.47149174  0.83894015  0.69659606    -0.16200
C269        C  0.49582633  0.83119053  0.65320860    -0.11000
C270        C  0.51893875  0.78668143  0.64574513     0.08300
C271        C  0.49333893  0.72136423  0.76103945     0.09400
S272        S  0.43890603  0.81842210  0.78710229    -0.25300
H273        H  0.45400678  0.87296118  0.70312160     0.19600
S274        S  0.55741485  0.77505843  0.59521446    -0.31000
H275        H  0.53322465  0.71678273  0.67464045     0.09900
C276        C  0.46195780  0.68199254  0.76141637     0.03100
C277        C  0.46583206  0.64765642  0.79788495    -0.13300
C278        C  0.50026271  0.65213668  0.83412289    -0.09000
C279        C  0.53228225  0.69122389  0.83293775     0.06600
C280        C  0.52815342  0.72555087  0.79671872    -0.14100
S281        S  0.41579135  0.67664304  0.71672278    -0.31000
H282        H  0.44112421  0.61789509  0.79901557     0.10800
S283        S  0.58017924  0.69846898  0.87537971    -0.28100
H284        H  0.55262375  0.75558357  0.79596899     0.08100
H285        H  0.57792038  0.82109022  0.59484841     0.26500
H286        H  0.39827398  0.63187410  0.73177149     0.21300
H287        H  0.58928174  0.64923578  0.88101327     0.26600
H288        H  0.42939227  0.77159663  0.80269486     0.15500
C289        C  0.47470314  0.30042958  0.76646401    -0.11800
C290        C  0.49333477  0.25557984  0.77903666     0.14700
C291        C  0.51146288  0.24867102  0.82563471     0.01600
C292        C  0.51134978  0.28683740  0.85810717    -0.16200
C293        C  0.49260504  0.33196065  0.84574832    -0.11000
C294        C  0.47314873  0.33818808  0.79932714     0.08300
C295        C  0.49494625  0.21753788  0.74205826     0.09400
S296        S  0.53526227  0.19217600  0.84596013    -0.25300
H297        H  0.52634571  0.28113453  0.89338105     0.19600
S298        S  0.44403254  0.39231710  0.77990262    -0.31000
H299        H  0.46065696  0.30586263  0.73074203     0.09900
C300        C  0.45285978  0.19778000  0.72273563     0.03100
C301        C  0.45619460  0.16362604  0.68607244    -0.13300
C302        C  0.50067732  0.14865484  0.66857480    -0.09000
C303        C  0.54287847  0.16734956  0.68890348     0.06600
C304        C  0.53944136  0.20194877  0.72502542    -0.14100
S305        S  0.39497999  0.21506282  0.74553729    -0.31000
H306        H  0.42407314  0.14843871  0.67083664     0.10800
S307        S  0.60219998  0.14932586  0.67083837    -0.28100
H308        H  0.57176858  0.21703853  0.73996850     0.08100
H309        H  0.41866264  0.39885652  0.82293101     0.26500
H310        H  0.36768397  0.18704660  0.71394637     0.21300
H311        H  0.59026310  0.11047754  0.64138112     0.26600
H312        H  0.50647262  0.16308854  0.81683261     0.15500
C313        C  0.68932809  0.24009265  0.51154876    -0.11800
C314        C  0.73493084  0.22700581  0.49560083     0.14700
C315        C  0.74398402  0.17861021  0.48397020     0.01600
C316        C  0.70744992  0.14472798  0.48853084    -0.16200
C317        C  0.66139883  0.15759680  0.50416721    -0.11000
C318        C  0.65276268  0.20632933  0.51635096     0.08300
C319        C  0.77283069  0.26413270  0.49479572     0.09400
S320        S  0.80102631  0.15749986  0.46245261    -0.25300
H321        H  0.71505226  0.10798590  0.47863163     0.19600
S322        S  0.59700679  0.22835983  0.54004344    -0.31000
H323        H  0.68249673  0.27698529  0.52157269     0.09900
C324        C  0.76987449  0.30461076  0.46469399     0.03100
C325        C  0.80564078  0.33966821  0.46673002    -0.13300
C326        C  0.84443493  0.33524608  0.49818442    -0.09000
C327        C  0.84711513  0.29475861  0.52852345     0.06600
C328        C  0.81149264  0.25973069  0.52632905    -0.14100
S329        S  0.72146706  0.31103351  0.42253576    -0.31000
H330        H  0.80384770  0.37037913  0.44312698     0.10800
S331        S  0.89361621  0.28662494  0.57235339    -0.28100
H332        H  0.81337153  0.22914332  0.55013659     0.08100
H333        H  0.59149535  0.19040329  0.57261522     0.26500
H334        H  0.73320246  0.35742991  0.40679761     0.21300
H335        H  0.89665507  0.33530712  0.58498871     0.26600
H336        H  0.81702789  0.20120043  0.44339043     0.15500
C337        C  0.80477365  0.72927663  0.45576085    -0.11800
C338        C  0.76642395  0.72771172  0.48803218     0.14700
C339        C  0.76295975  0.68924978  0.52072138     0.01600
C340        C  0.79808322  0.65362403  0.52076484    -0.16200
C341        C  0.83710277  0.65584573  0.48933772    -0.11000
C342        C  0.83983940  0.69362014  0.45575534     0.08300
C343        C  0.72979238  0.76580549  0.48585092     0.09400
S344        S  0.71503693  0.68383039  0.56362054    -0.25300
H345        H  0.79564887  0.62463200  0.54645793     0.19600
S346        S  0.88583283  0.69711056  0.41060629    -0.31000
H347        H  0.80693039  0.75812044  0.42988329     0.09900
C348        C  0.73982299  0.81290783  0.50058824     0.03100
C349        C  0.70336313  0.84721840  0.50030428    -0.13300
C350        C  0.65660312  0.83566515  0.48590819    -0.09000
C351        C  0.64750497  0.78858700  0.46896268     0.06600
C352        C  0.68393251  0.75429561  0.46975147    -0.14100
S353        S  0.79865451  0.82914307  0.52131287    -0.31000
H354        H  0.71147016  0.88321322  0.51199398     0.10800
S355        S  0.59133032  0.76999125  0.44383091    -0.28100
H356        H  0.67659763  0.71823628  0.45741784     0.08100
H357        H  0.88940681  0.64733623  0.40343583     0.26500
H358        H  0.78569721  0.87324301  0.54194788     0.21300
H359        H  0.58656894  0.81117391  0.41516690     0.26600
H360        H  0.70696581  0.73316641  0.56961077     0.15500
C361        C  0.24327269  0.31429408  0.51829721    -0.11800
C362        C  0.23640229  0.27283488  0.49085994     0.14700
C363        C  0.19261509  0.26622201  0.46687932     0.01600
C364        C  0.15670859  0.30086660  0.47112831    -0.16200
C365        C  0.16356139  0.34273433  0.49825024    -0.11000
C366        C  0.20741767  0.34896586  0.52266105     0.08300
C367        C  0.27372778  0.23520844  0.49177953     0.09400
S368        S  0.18059483  0.21465080  0.42990652    -0.25300
H369        H  0.12350335  0.29556980  0.45203667     0.19600
S370        S  0.21913456  0.39866607  0.56217621    -0.31000
H371        H  0.27637977  0.31891065  0.53774783     0.09900
C372        C  0.31853699  0.24166678  0.46971453     0.03100
C373        C  0.35301467  0.20522783  0.47286645    -0.13300
C374        C  0.34390921  0.16281235  0.49852347    -0.09000
C375        C  0.29937558  0.15738564  0.52183806     0.06600
C376        C  0.26466315  0.19306708  0.51741876    -0.14100
S377        S  0.33134245  0.29569524  0.43654266    -0.31000
H378        H  0.38691686  0.20949594  0.45472304     0.10800
S379        S  0.28559201  0.10736552  0.56031748    -0.28100
H380        H  0.23067954  0.18865894  0.53544270     0.08100
H381        H  0.17271393  0.40020691  0.58123885     0.26500
H382        H  0.38045109  0.28711061  0.43050900     0.21300
H383        H  0.33137031  0.10485503  0.58082935     0.26600
H384        H  0.22809758  0.20672252  0.41572107     0.15500
C385        C  0.30383695  0.76541968  0.52134522    -0.11800
C386        C  0.26228836  0.77354435  0.49470888     0.14700
C387        C  0.25643381  0.81756587  0.47049279     0.01600
C388        C  0.29302320  0.85167734  0.47222440    -0.16200
C389        C  0.33520721  0.84319316  0.49804177    -0.11000
C390        C  0.33977830  0.80000880  0.52412282     0.08300
C391        C  0.22522613  0.73595116  0.49479040     0.09400
S392        S  0.20325906  0.83318208  0.43746482    -0.25300
H393        H  0.28872206  0.88494981  0.45271246     0.19600
S394        S  0.38893645  0.78812618  0.56400782    -0.31000
H395        H  0.30769663  0.73226948  0.54116543     0.09900
C396        C  0.22726788  0.69702476  0.46276720     0.03100
C397        C  0.19248675  0.66099730  0.46552416    -0.13300
C398        C  0.15557480  0.66335054  0.49953368    -0.09000
C399        C  0.15372258  0.70255522  0.53153947     0.06600
C400        C  0.18833858  0.73852207  0.52857812    -0.14100
S401        S  0.27370296  0.69381217  0.41796373    -0.31000
H402        H  0.19358094  0.63119219  0.44072714     0.10800
S403        S  0.10946697  0.70776342  0.57822267    -0.28100
H404        H  0.18710646  0.76832652  0.55340962     0.08100
H405        H  0.39184675  0.83539324  0.58133131     0.26500
H406        H  0.25803318  0.65126936  0.39607038     0.21300
H407        H  0.10661643  0.65839677  0.58791758     0.26600
H408        H  0.18332528  0.78731064  0.43323334     0.15500
C409        C  0.81301472  0.48031573  0.25626910    -0.11800
C410        C  0.77023895  0.50472042  0.26529002     0.14700
C411        C  0.76300860  0.52658328  0.31020330     0.01600
C412        C  0.79861945  0.52360442  0.34512216    -0.16200
C413        C  0.84178179  0.49940123  0.33623892    -0.11000
C414        C  0.84845744  0.47673692  0.29133160     0.08300
C415        C  0.73248563  0.50376909  0.22843070     0.09400
S416        S  0.70903250  0.55855951  0.32501190    -0.25300
H417        H  0.79283560  0.54109781  0.37927957     0.19600
S418        S  0.89962227  0.44000127  0.27748340    -0.31000
H419        H  0.81810219  0.46253634  0.22214298     0.09900
C420        C  0.73461456  0.53342944  0.18772630     0.03100
C421        C  0.69825909  0.53076008  0.15342764    -0.13300
C422        C  0.65976224  0.49907491  0.15908535    -0.09000
C423        C  0.65810655  0.46893715  0.19976934     0.06600
C424        C  0.69422546  0.47198487  0.23412571    -0.14100
S425        S  0.78286244  0.57561956  0.18024348    -0.31000
H426        H  0.69932734  0.55400185  0.12241270     0.10800
S427        S  0.61219992  0.42460108  0.20916594    -0.28100
H428        H  0.69299432  0.44881432  0.26522986     0.08100
H429        H  0.90256796  0.41917724  0.32326692     0.26500
H430        H  0.76748068  0.59477755  0.13631688     0.21300
H431        H  0.60605969  0.41322219  0.16055188     0.26600
H432        H  0.70054546  0.57617802  0.27865274     0.15500
C433        C  0.30811099  0.53371065  0.23592556    -0.11800
C434        C  0.26854927  0.50345941  0.23133578     0.14700
C435        C  0.26477794  0.47316749  0.19109598     0.01600
C436        C  0.30057033  0.47412515  0.15613583    -0.16200
C437        C  0.34056314  0.50408194  0.16083435    -0.11000
C438        C  0.34396590  0.53461472  0.20111338     0.08300
C439        C  0.23194447  0.50454334  0.26926171     0.09400
S440        S  0.21533565  0.43275524  0.18206433    -0.25300
H441        H  0.29767516  0.45051915  0.12546782     0.19600
S442        S  0.39193703  0.57686086  0.20947402    -0.31000
H443        H  0.31074469  0.55722241  0.26668935     0.09900
C444        C  0.23719030  0.47695714  0.31106873     0.03100
C445        C  0.20188895  0.47898378  0.34653753    -0.13300
C446        C  0.16144018  0.50814216  0.34099382    -0.09000
C447        C  0.15728442  0.53722800  0.29970209     0.06600
C448        C  0.19221287  0.53452696  0.26396337    -0.14100
S449        S  0.28806054  0.43786796  0.31827681    -0.31000
H450        H  0.20513050  0.45679562  0.37815253     0.10800
S451        S  0.10976369  0.58009632  0.29162109    -0.28100
H452        H  0.18889683  0.55653430  0.23218218     0.08100
H453        H  0.39651687  0.58883741  0.16079729     0.26500
H454        H  0.27609748  0.42087275  0.36414271     0.21300
H455        H  0.10692339  0.59303799  0.34023471     0.26600
H456        H  0.20384925  0.42568189  0.23048575     0.15500
C457        C  0.30988763  0.51007437  0.75789943    -0.11800
C458        C  0.26218124  0.50868243  0.77291213     0.14700
C459        C  0.25217894  0.50547059  0.82230193     0.01600
C460        C  0.28975257  0.50226262  0.85514763    -0.16200
C461        C  0.33795538  0.50395417  0.84051435    -0.11000
C462        C  0.34780297  0.50886810  0.79070163     0.08300
C463        C  0.22402100  0.50846794  0.73583733     0.09400
S464        S  0.19223914  0.50654533  0.84587548    -0.25300
H465        H  0.28085634  0.49913535  0.89275918     0.19600
S466        S  0.40772330  0.51547755  0.76730374    -0.31000
H467        H  0.31729112  0.51244069  0.71993464     0.09900
C468        C  0.21905070  0.54628567  0.70261099     0.03100
C469        C  0.18522768  0.54260593  0.66574469    -0.13300
C470        C  0.15496390  0.50275557  0.66234362    -0.09000
C471        C  0.15881433  0.46567527  0.69660013     0.06600
C472        C  0.19352839  0.46871999  0.73250155    -0.14100
S473        S  0.25405773  0.60030666  0.70848408    -0.31000
H474        H  0.18138948  0.57143285  0.64009925     0.10800
S475        S  0.12118516  0.41321976  0.69622591    -0.28100
H476        H  0.19721853  0.43951823  0.75778046     0.08100
H477        H  0.39632318  0.51460598  0.71831683     0.26500
H478        H  0.23408104  0.62493224  0.66942680     0.21300
H479        H  0.11441414  0.41139009  0.64647464     0.26600
H480        H  0.17340836  0.53653222  0.81012551     0.15500
C481        C  0.75558552  0.47421010  0.68371169    -0.11800
C482        C  0.76607099  0.49353706  0.72880511     0.14700
C483        C  0.81241520  0.51086604  0.73787437     0.01600
C484        C  0.84696473  0.50902495  0.70172911    -0.16200
C485        C  0.83658128  0.49051275  0.65604738    -0.11000
C486        C  0.79025710  0.47180611  0.64758264     0.08300
C487        C  0.72850643  0.49336624  0.76621369     0.09400
S488        S  0.82959803  0.53636778  0.79460514    -0.25300
H489        H  0.88205943  0.52341934  0.70919061     0.19600
S490        S  0.77345740  0.44204254  0.59284078    -0.31000
H491        H  0.72030147  0.45985832  0.67701186     0.09900
C492        C  0.68958149  0.52529133  0.76436215     0.03100
C493        C  0.65450629  0.52352906  0.80026613    -0.13300
C494        C  0.65785427  0.49081136  0.83834227    -0.09000
C495        C  0.69687867  0.45872241  0.83989833     0.06600
C496        C  0.73186746  0.46061089  0.80411092    -0.14100
S497        S  0.68556268  0.56938608  0.71721511    -0.31000
H498        H  0.62480352  0.54833494  0.79925395     0.10800
S499        S  0.70299135  0.41328152  0.88538434    -0.28100
H500        H  0.76164165  0.43586126  0.80536793     0.08100
H501        H  0.81652823  0.41641735  0.58868191     0.26500
H502        H  0.64553719  0.59381247  0.73540013     0.21300
H503        H  0.65391387  0.40320075  0.88867963     0.26600
H504        H  0.78470977  0.55579103  0.80595116     0.15500
C505        C  0.69539797  0.73395459  0.02169308    -0.11800
C506        C  0.73569238  0.72649619  0.99281436     0.14700
C507        C  0.73966604  0.68341444  0.96664916     0.01600
C508        C  0.70342616  0.64891953  0.96990058    -0.16200
C509        C  0.66266051  0.65646358  0.99837017    -0.11000
C510        C  0.65929714  0.69938485  0.02527260     0.08300
C511        C  0.77368169  0.76356071  0.99250913     0.09400
S512        S  0.79008827  0.67029907  0.92866487    -0.25300
H513        H  0.70664178  0.61627749  0.94914168     0.19600
S514        S  0.61155053  0.71111471  0.06703325    -0.31000
H515        H  0.69263826  0.76658621  0.04254576     0.09900
C516        C  0.77033906  0.80449667  0.96321013     0.03100
C517        C  0.80578532  0.83998306  0.96583267    -0.13300
C518        C  0.84456585  0.83552665  0.99740891    -0.09000
C519        C  0.84748849  0.79451031  0.02705855     0.06600
C520        C  0.81246635  0.75881707  0.02379393    -0.14100
S521        S  0.72107986  0.81115061  0.92216672    -0.31000
H522        H  0.80350519  0.87122507  0.94297398     0.10800
S523        S  0.89324557  0.78687558  0.07178092    -0.28100
H524        H  0.81465971  0.72770622  0.04687962     0.08100
H525        H  0.60750093  0.66342851  0.08279954     0.26500
H526        H  0.73655435  0.85425379  0.90132438     0.21300
H527        H  0.89564570  0.83554532  0.08460323     0.26600
H528        H  0.79907879  0.71783794  0.91485615     0.15500
C529        C  0.75935886  0.18399495  0.03177594    -0.11800
C530        C  0.76437023  0.22566995  0.00425857     0.14700
C531        C  0.80698426  0.23349370  0.97855718     0.01600
C532        C  0.84333699  0.19923801  0.98014292    -0.16200
C533        C  0.83796546  0.15673543  0.00649474    -0.11000
C534        C  0.79593962  0.14989045  0.03385281     0.08300
C535        C  0.72600658  0.26197857  0.00534194     0.09400
S536        S  0.81675170  0.28639129  0.94286937    -0.25300
H537        H  0.87553358  0.20524344  0.95947065     0.19600
S538        S  0.78808862  0.10019913  0.07440051    -0.31000
H539        H  0.72723756  0.17867188  0.05275338     0.09900
C540        C  0.68454131  0.25715756  0.97736454     0.03100
C541        C  0.65007271  0.29365862  0.97811669    -0.13300
C542        C  0.65630250  0.33489506  0.00633208    -0.09000
C543        C  0.69747329  0.33874855  0.03536701     0.06600
C544        C  0.73198793  0.30259867  0.03408396    -0.14100
S545        S  0.67644666  0.20535248  0.93950339    -0.31000
H546        H  0.61859552  0.29057254  0.95591638     0.10800
S547        S  0.70732967  0.38771798  0.07626051    -0.28100
H548        H  0.76369067  0.30590591  0.05599717     0.08100
H549        H  0.83585966  0.09964266  0.08987989     0.26500
H550        H  0.63335590  0.22022280  0.91844215     0.21300
H551        H  0.65920536  0.39204176  0.08987080     0.26600
H552        H  0.76946962  0.29021431  0.92657158     0.15500
C553        C  0.24580091  0.81560473  0.01233243    -0.11800
C554        C  0.23552715  0.77111643  0.99163058     0.14700
C555        C  0.18964960  0.76269620  0.97286585     0.01600
C556        C  0.15486511  0.79855885  0.97589604    -0.16200
C557        C  0.16476092  0.84334203  0.99680488    -0.11000
C558        C  0.21105799  0.85150403  0.01566945     0.08300
C559        C  0.27253451  0.73332066  0.99294671     0.09400
S560        S  0.17339805  0.70705451  0.94445825    -0.25300
H561        H  0.11992500  0.79157769  0.96091341     0.19600
S562        S  0.22775833  0.90541434  0.04699297    -0.31000
H563        H  0.28087722  0.82184445  0.02736742     0.09900
C564        C  0.31152585  0.73372489  0.96108575     0.03100
C565        C  0.34634687  0.69776435  0.96437419    -0.13300
C566        C  0.34297704  0.66141512  0.99895410    -0.09000
C567        C  0.30425445  0.66173307  0.03151334     0.06600
C568        C  0.26923906  0.69730422  0.02775667    -0.14100
S569        S  0.31616082  0.77929194  0.91543853    -0.31000
H570        H  0.37589713  0.69737148  0.93935970     0.10800
S571        S  0.29858216  0.61924341  0.07987295    -0.28100
H572        H  0.23965067  0.69754733  0.05278304     0.08100
H573        H  0.18511977  0.90809540  0.07353994     0.26500
H574        H  0.35914404  0.76299399  0.89506525     0.21300
H575        H  0.34783457  0.61480920  0.08826677     0.26600
H576        H  0.21894368  0.69665840  0.92605518     0.15500
C577        C  0.30274169  0.26785323  0.03802007    -0.11800
C578        C  0.26625855  0.27088023  0.00387163     0.14700
C579        C  0.26502815  0.31003527  0.97198951     0.01600
C580        C  0.30031396  0.34523169  0.97484711    -0.16200
C581        C  0.33732990  0.34191254  0.00843258    -0.11000
C582        C  0.33796482  0.30319913  0.04101316     0.08300
C583        C  0.22917414  0.23343644  0.00340709     0.09400
S584        S  0.21949095  0.31724201  0.92700561    -0.25300
H585        H  0.29959028  0.37484405  0.94975639     0.19600
S586        S  0.38110547  0.29833127  0.08861430    -0.31000
H587        H  0.30319911  0.23820266  0.06305804     0.09900
C588        C  0.23614212  0.19013688  0.97864183     0.03100
C589        C  0.19997042  0.15554655  0.97889749    -0.13300
C590        C  0.15701365  0.16311365  0.00390934    -0.09000
C591        C  0.15084458  0.20635216  0.02980632     0.06600
C592        C  0.18669638  0.24118382  0.02868117    -0.14100
S593        S  0.29064780  0.17959519  0.94568830    -0.31000
H594        H  0.20491579  0.12269189  0.95890394     0.10800
S595        S  0.09945864  0.21853739  0.06680340    -0.28100
H596        H  0.18188055  0.27428397  0.04839254     0.08100
H597        H  0.38311620  0.34784685  0.09789300     0.26500
H598        H  0.28053426  0.13210049  0.93232712     0.21300
H599        H  0.09645216  0.17177143  0.08533998     0.26600
H600        H  0.21167997  0.26824550  0.91878962     0.15500
C601        C  0.73116092  0.95712647  0.69534865    -0.11800
C602        C  0.72706248  0.98894075  0.73398544     0.14700
C603        C  0.68733842  0.01997349  0.73648452     0.01600
C604        C  0.65243480  0.01809287  0.70080142    -0.16200
C605        C  0.65684382  0.98687359  0.66164067    -0.11000
C606        C  0.69626076  0.95529889  0.65959032     0.08300
C607        C  0.76520652  0.98953951  0.77059174     0.09400
S608        S  0.67978501  0.06355178  0.78354900    -0.25300
H609        H  0.62231003  0.04235468  0.70282585     0.19600
S610        S  0.70281006  0.91021642  0.61390752    -0.31000
H611        H  0.76139679  0.93296639  0.69352358     0.09900
C612        C  0.75806389  0.97132216  0.81701763     0.03100
C613        C  0.79491127  0.97464687  0.85083586    -0.13300
C614        C  0.83927260  0.99533744  0.83913621    -0.09000
C615        C  0.84634611  0.01279089  0.79188471     0.06600
C616        C  0.80929815  0.00948800  0.75839692    -0.14100
S617        S  0.70265971  0.94225803  0.83263940    -0.31000
H618        H  0.78936355  0.96013740  0.88634142     0.10800
S619        S  0.90152910  0.04036558  0.77305101    -0.28100
H620        H  0.81441856  0.02288578  0.72237460     0.08100
H621        H  0.65372016  0.90097031  0.60904928     0.26500
H622        H  0.71151590  0.93891222  0.88206165     0.21300
H623        H  0.88346024  0.06231584  0.73156820     0.26600
H624        H  0.72857341  0.07381044  0.78892873     0.15500
C625        C  0.23463262  0.97594564  0.80471560    -0.11800
C626        C  0.22746026  0.00418102  0.76389746     0.14700
C627        C  0.18451030  0.03004910  0.75884039     0.01600
C628        C  0.14996728  0.02746988  0.79496446    -0.16200
C629        C  0.15756758  0.00005894  0.83648806    -0.11000
C630        C  0.20017474  0.97322041  0.84076500     0.08300
C631        C  0.26488122  0.00395846  0.72662053     0.09400
S632        S  0.17203123  0.06741388  0.70769382    -0.25300
H633        H  0.11739989  0.04807068  0.79117369     0.19600
S634        S  0.21195555  0.93301552  0.88990012    -0.31000
H635        H  0.26711911  0.95512961  0.80804769     0.09900
C636        C  0.30965130  0.02527541  0.73475612     0.03100
C637        C  0.34550034  0.02115005  0.69996614    -0.13300
C638        C  0.33743099  0.99624855  0.65700079    -0.09000
C639        C  0.29239239  0.97458238  0.64927050     0.06600
C640        C  0.25659033  0.97915398  0.68387887    -0.14100
S641        S  0.32044987  0.05930089  0.78868088    -0.31000
H642        H  0.37957227  0.03844978  0.70572593     0.10800
S643        S  0.27890952  0.93862348  0.59736927    -0.28100
H644        H  0.22237830  0.96204777  0.67811441     0.08100
H645        H  0.16463340  0.91674193  0.89400628     0.26500
H646        H  0.36959038  0.06632995  0.78126424     0.21300
H647        H  0.32421052  0.91699226  0.59497139     0.26600
H648        H  0.21960483  0.08064025  0.69878536     0.15500
C649        C  0.26564112  0.03558067  0.30596308    -0.11800
C650        C  0.27266331  0.00831645  0.26439360     0.14700
C651        C  0.31527923  0.98193440  0.25893457     0.01600
C652        C  0.34971692  0.98319159  0.29514481    -0.16200
C653        C  0.34239777  0.00963240  0.33736219    -0.11000
C654        C  0.29999867  0.03684562  0.34226444     0.08300
C655        C  0.23460170  0.00789161  0.22769658     0.09400
S656        S  0.32761804  0.94562625  0.20696611    -0.25300
H657        H  0.38195640  0.96214679  0.29087940     0.19600
S658        S  0.28820116  0.07530627  0.39283473    -0.31000
H659        H  0.23318747  0.05634113  0.30994913     0.09900
C660        C  0.19377666  0.97907251  0.23334406     0.03100
C661        C  0.15815616  0.97967135  0.19810367    -0.13300
C662        C  0.16216050  0.00904214  0.15744489    -0.09000
C663        C  0.20248298  0.03931225  0.15290764     0.06600
C664        C  0.23858752  0.03771941  0.18754458    -0.14100
S665        S  0.18774843  0.94058728  0.28496857    -0.31000
H666        H  0.12742772  0.95648226  0.20177699     0.10800
S667        S  0.20860082  0.08279640  0.10556410    -0.28100
H668        H  0.26947089  0.06076609  0.18383862     0.08100
H669        H  0.33562238  0.09104178  0.39764602     0.26500
H670        H  0.14108880  0.92494149  0.27520809     0.21300
H671        H  0.15982197  0.09467778  0.10414069     0.26600
H672        H  0.28015775  0.93204927  0.19829016     0.15500
C673        C  0.73883045  0.97093413  0.31044275    -0.11800
C674        C  0.73362339  0.99969209  0.26969848     0.14700
C675        C  0.69206941  0.02776066  0.26443299     0.01600
C676        C  0.65633990  0.02581683  0.29954426    -0.16200
C677        C  0.66153942  0.99730653  0.34070522    -0.11000
C678        C  0.70331408  0.96913368  0.34569727     0.08300
C679        C  0.77151792  0.99843043  0.23270024     0.09400
S680        S  0.68265230  0.06689656  0.21394190    -0.25300
H681        H  0.62472552  0.04775772  0.29525019     0.19600
S682        S  0.71254055  0.92822192  0.39472499    -0.31000
H683        H  0.77050146  0.94898762  0.31432894     0.09900
C684        C  0.81250452  0.02730008  0.23647242     0.03100
C685        C  0.84751303  0.02523179  0.20052747    -0.13300
C686        C  0.84259197  0.99443550  0.16100762    -0.09000
C687        C  0.80205996  0.96435104  0.15827517     0.06600
C688        C  0.76673702  0.96720690  0.19370854    -0.14100
S689        S  0.81956831  0.06744143  0.28666307    -0.31000
H690        H  0.87852678  0.04821182  0.20280620     0.10800
S691        S  0.79437285  0.92002542  0.11190631    -0.28100
H692        H  0.73564061  0.94428823  0.19137247     0.08100
H693        H  0.66511112  0.91180753  0.39542753     0.26500
H694        H  0.86184623  0.08936062  0.27065989     0.21300
H695        H  0.84306776  0.90834538  0.10813942     0.26600
H696        H  0.73087882  0.07807427  0.20602334     0.15500
C697        C  0.02512591  0.26256646  0.69118678    -0.11800
C698        C  0.99970040  0.27182418  0.73341360     0.14700
C699        C  0.97583250  0.31594581  0.73899710     0.01600
C700        C  0.97818557  0.34986883  0.70227660    -0.16200
C701        C  0.00303120  0.34054188  0.65945355    -0.11000
C702        C  0.02744143  0.29641463  0.65439468     0.08300
C703        C  0.99891572  0.23449187  0.77071911     0.09400
S704        S  0.94109875  0.33110238  0.79139070    -0.25300
H705        H  0.95924097  0.38343266  0.70675260     0.19600
S706        S  0.06383964  0.28168575  0.60318158    -0.31000
H707        H  0.04381716  0.22879557  0.68716345     0.09900
C708        C  0.96917692  0.19421009  0.76626910     0.03100
C709        C  0.97006175  0.15876156  0.80168981    -0.13300
C710        C  0.00063235  0.16243896  0.84122092    -0.09000
C711        C  0.03121026  0.20262048  0.84504271     0.06600
C712        C  0.02952783  0.23848658  0.81009013    -0.14100
S713        S  0.92900940  0.18868264  0.71616925    -0.31000
H714        H  0.94609486  0.12860783  0.79911710     0.10800
S715        S  0.07470555  0.20911107  0.89213595    -0.28100
H716        H  0.05302187  0.26916724  0.81293228     0.08100
H717        H  0.08439801  0.32751915  0.59951070     0.26500
H718        H  0.92234983  0.13903656  0.72061757     0.21300
H719        H  0.08680255  0.16021548  0.89382928     0.26600
H720        H  0.93173353  0.28429871  0.80716406     0.15500
C721        C  0.01802198  0.68536244  0.74027746    -0.11800
C722        C  0.99622401  0.72960588  0.73119318     0.14700
C723        C  0.97609016  0.73837951  0.68580315     0.01600
C724        C  0.97833605  0.70300968  0.65046564    -0.16200
C725        C  0.99955850  0.65830678  0.65951238    -0.11000
C726        C  0.02043503  0.64990594  0.70497459     0.08300
C727        C  0.99759329  0.76703039  0.76866560     0.09400
S728        S  0.94618794  0.79365253  0.67118982    -0.25300
H729        H  0.96214512  0.71010754  0.61598778     0.19600
S730        S  0.05318808  0.59621412  0.71956686    -0.31000
H731        H  0.03443393  0.67894070  0.77479192     0.09900
C732        C  0.96984182  0.76347018  0.81056972     0.03100
C733        C  0.97239986  0.79990828  0.84504345    -0.13300
C734        C  0.00149144  0.84034528  0.83806221    -0.09000
C735        C  0.02907599  0.84390458  0.79578151     0.06600
C736        C  0.02700252  0.80702381  0.76174835    -0.14100
S737        S  0.92997553  0.71338562  0.81933951    -0.31000
H738        H  0.95101549  0.79733792  0.87725837     0.10800
S739        S  0.06886265  0.89388282  0.78579779    -0.28100
H740        H  0.04846203  0.80907484  0.72955059     0.08100
H741        H  0.07707645  0.59418609  0.67525608     0.26500
H742        H  0.90725867  0.73116380  0.86062927     0.21300
H743        H  0.08231650  0.88168655  0.73881850     0.26600
H744        H  0.92748131  0.80161486  0.71724963     0.15500
C745        C  0.02472093  0.73770776  0.30744064    -0.11800
C746        C  0.99852239  0.72983235  0.26552908     0.14700
C747        C  0.97262107  0.68689482  0.26011322     0.01600
C748        C  0.97419581  0.65241927  0.29641721    -0.16200
C749        C  0.00032140  0.66016669  0.33863160    -0.11000
C750        C  0.02619720  0.70338796  0.34384650     0.08300
C751        C  0.99938739  0.76713758  0.22815192     0.09400
S752        S  0.93707319  0.67381205  0.20791442    -0.25300
H753        H  0.95400025  0.61961994  0.29205760     0.19600
S754        S  0.06360380  0.71612412  0.39474297    -0.31000
H755        H  0.04480725  0.77062726  0.31144034     0.09900
C756        C  0.96755242  0.80608438  0.22982048     0.03100
C757        C  0.97036352  0.84176394  0.19468641    -0.13300
C758        C  0.00437515  0.83913117  0.15784215    -0.09000
C759        C  0.03676256  0.80026313  0.15667543     0.06600
C760        C  0.03363390  0.76448420  0.19163689    -0.14100
S761        S  0.92241871  0.80934540  0.27592462    -0.31000
H762        H  0.94533532  0.87132840  0.19524867     0.10800
S763        S  0.08391618  0.79526405  0.11285652    -0.28100
H764        H  0.05856124  0.73479726  0.19092410     0.08100
H765        H  0.08243098  0.66948769  0.39776100     0.26500
H766        H  0.90431641  0.85455784  0.26314747     0.21300
H767        H  0.09250305  0.84476530  0.10906520     0.26600
H768        H  0.92578018  0.72133499  0.19599335     0.15500
C769        C  0.97139400  0.23784511  0.18957078    -0.11800
C770        C  0.99828757  0.23043819  0.23111725     0.14700
C771        C  0.02276896  0.18675116  0.23752117     0.01600
C772        C  0.02070513  0.15191465  0.20166220    -0.16200
C773        C  0.99467557  0.15953008  0.15940906    -0.11000
C774        C  0.96865351  0.20270536  0.15404394     0.08300
C775        C  0.99897782  0.26863375  0.26749016     0.09400
S776        S  0.05683697  0.17277898  0.29051751    -0.25300
H777        H  0.04049040  0.11889532  0.20643328     0.19600
S778        S  0.92925301  0.21421505  0.10436864    -0.31000
H779        H  0.95164834  0.27096540  0.18527519     0.09900
C780        C  0.03111007  0.30720205  0.26400933     0.03100
C781        C  0.03056107  0.34294379  0.29920753    -0.13300
C782        C  0.99855611  0.34061549  0.33780450    -0.09000
C783        C  0.96539239  0.30258395  0.34043477     0.06600
C784        C  0.96625267  0.26672175  0.30535021    -0.14100
S785        S  0.07368558  0.30998093  0.21549096    -0.31000
H786        H  0.05578290  0.37224653  0.29731026     0.10800
S787        S  0.92034125  0.30079123  0.38683044    -0.28100
H788        H  0.94127162  0.23720286  0.30707058     0.08100
H789        H  0.91180578  0.16702296  0.10198681     0.26500
H790        H  0.09176775  0.35569215  0.22634926     0.21300
H791        H  0.89509752  0.26103202  0.36916276     0.26600
H792        H  0.06700976  0.21994603  0.30452960     0.15500
loop_ 
_geom_bond_atom_site_label_1 
_geom_bond_atom_site_label_2 
_geom_bond_distance 
_geom_bond_site_symmetry_2 
_ccdc_geom_bond_type 
O1           C12   1.291       .  A
O1          Eu37   2.458   1_645  S
O2           C13   1.293       .  A
O2          Eu36   2.468       .  S
O3           C14   1.291       .  A
O3           Eu9   2.459   1_454  S
O4           C15   1.291       .  A
O4           Eu9   2.453   1_554  S
O5           C15   1.291       .  A
O5          Eu39   2.458   1_544  S
O6           C14   1.290   1_556  A
O6          Eu38   2.451       .  S
O7           C13   1.289       .  A
O7           Eu9   2.445       .  S
O8           C12   1.289       .  A
O8           Eu9   2.448   1_554  S
Eu9          O19   2.350   1_556  S
Eu9          O11   2.348   1_656  S
Eu9          O10   2.357       .  S
Eu9          O17   2.351   1_655  S
O10         Eu39   2.358   1_545  S
O10         Eu36   2.353       .  S
O11         Eu37   2.348   1_545  S
O11         Eu38   2.350   1_554  S
C12         C773   1.479       .  S
C13         C710   1.476   1_655  S
C14         C590   1.482       .  S
C15         C533   1.479       .  S
H16          O17   0.966       .  S
O17         Eu38   2.352       .  S
O17         Eu36   2.354   1_455  S
H18          O19   0.966       .  S
O19         Eu37   2.350   1_645  S
O19         Eu39   2.352   1_544  S
O20          C43   1.292       .  A
O20         Eu36   2.463   1_465  S
O21          C44   1.291       .  A
O21         Eu37   2.455       .  S
O22          C45   1.292       .  A
O22         Eu38   2.460       .  S
O23          C46   1.293       .  A
O23         Eu39   2.468       .  S
O24          C47   1.292       .  A
O24         Eu39   2.464   1_554  S
O25          C48   1.291       .  A
O25         Eu38   2.461   1_554  S
O26          C49   1.293       .  A
O26         Eu40   2.464       .  S
O27          C50   1.292       .  A
O27         Eu40   2.465   1_655  S
O28          C49   1.290       .  A
O28         Eu38   2.454   1_565  S
O29          C50   1.292       .  A
O29         Eu39   2.464       .  S
O30          C45   1.290       .  A
O30         Eu36   2.448   1_455  S
O31          C48   1.293       .  A
O31         Eu37   2.469   1_545  S
O32          C47   1.292       .  A
O32         Eu37   2.459   1_655  S
O33          C46   1.289       .  A
O33         Eu36   2.455   1_565  S
O34          C43   1.291       .  A
O34         Eu40   2.457       .  S
O35          C44   1.290       .  A
O35         Eu40   2.453   1_554  S
Eu36         O54   2.349   1_545  S
Eu36         O42   2.354   1_645  S
Eu37         O41   2.356   1_455  S
Eu37         O52   2.354       .  S
Eu38         O52   2.353   1_546  S
Eu38         O42   2.351   1_545  S
Eu39         O41   2.356   1_556  S
Eu39         O54   2.347       .  S
Eu40         O41   2.353   1_456  S
Eu40         O52   2.357   1_556  S
Eu40         O54   2.352   1_455  S
Eu40         O42   2.351       .  S
C43         C734   1.481       .  S
C44         C758   1.473       .  S
C45         C629   1.477       .  S
C46         C614   1.493       .  S
C47         C686   1.482       .  S
C48         C662   1.484       .  S
C49         C557   1.489       .  S
C50         C518   1.484       .  S
H51          O52   0.966       .  S
H53          O54   0.965       .  S
O55          C66   1.291       .  A
O55         Eu91   2.455       .  S
O56          C67   1.288   1_655  A
O56         Eu90   2.439       .  S
O57          C68   1.292       .  A
O57         Eu63   2.462       .  S
O58          C69   1.291       .  A
O58         Eu63   2.455   1_655  S
O59          C69   1.292       .  A
O59         Eu93   2.462       .  S
O60          C68   1.291       .  A
O60         Eu92   2.460       .  S
O61          C67   1.292       .  A
O61         Eu63   2.465       .  S
O62          C66   1.290       .  A
O62         Eu63   2.454       .  S
Eu63         O73   2.356   1_455  S
Eu63         O65   2.356       .  S
Eu63         O64   2.350   1_455  S
Eu63         O71   2.349       .  S
O64         Eu93   2.350       .  S
O64         Eu90   2.346       .  S
O65         Eu91   2.358       .  S
O65         Eu92   2.358       .  S
C66         C782   1.473   1_455  S
C67         C701   1.481       .  S
C68         C365   1.485       .  S
C69         C326   1.479       .  S
H70          O71   0.966       .  S
O71         Eu92   2.349       .  S
O71         Eu90   2.353   1_455  S
H72          O73   0.966       .  S
O73         Eu91   2.351   1_655  S
O73         Eu93   2.350       .  S
O74          C97   1.288       .  A
O74         Eu90   2.445       .  S
O75          C98   1.290       .  A
O75         Eu91   2.453   1_655  S
O76          C99   1.293       .  A
O76         Eu92   2.472       .  S
O77         C100   1.290       .  A
O77         Eu93   2.454       .  S
O78         C101   1.291       .  A
O78         Eu93   2.454       .  S
O79         C102   1.291       .  A
O79         Eu92   2.456       .  S
O80         C103   1.291       .  A
O80         Eu94   2.459   1_455  S
O81         C104   1.290       .  A
O81         Eu94   2.453       .  S
O82         C103   1.291       .  A
O82         Eu92   2.458       .  S
O83         C104   1.291       .  A
O83         Eu93   2.456       .  S
O84          C99   1.290       .  A
O84         Eu90   2.458   1_455  S
O85         C102   1.291       .  A
O85         Eu91   2.455       .  S
O86         C101   1.292       .  A
O86         Eu91   2.463   1_655  S
O87         C100   1.293       .  A
O87         Eu90   2.463       .  S
O88          C97   1.291       .  A
O88         Eu94   2.455       .  S
O89          C98   1.291       .  A
O89         Eu94   2.457       .  S
Eu90        O108   2.353       .  S
Eu90         O96   2.350   1_655  S
Eu91         O95   2.346   1_455  S
Eu91        O106   2.351       .  S
Eu92        O106   2.352       .  S
Eu92         O96   2.350       .  S
Eu93         O95   2.351       .  S
Eu93        O108   2.356       .  S
Eu94         O95   2.350       .  S
Eu94        O106   2.346   1_655  S
Eu94        O108   2.357       .  S
Eu94         O96   2.349   1_655  S
C97         C725   1.482       .  S
C98         C749   1.479   1_655  S
C99         C470   1.477       .  S
C100        C485   1.490       .  S
C101        C413   1.484       .  S
C102        C446   1.476       .  S
C103        C398   1.476       .  S
C104        C341   1.473       .  S
H105        O106   0.966       .  S
H107        O108   0.966       .  S
O109        C120   1.292       .  A
O109       Eu145   2.462       .  S
O110        C121   1.291       .  A
O110       Eu144   2.457       .  S
O111        C122   1.292       .  A
O111       Eu117   2.463   1_565  S
O112        C123   1.291       .  A
O112       Eu117   2.453       .  S
O113        C123   1.290       .  A
O113       Eu147   2.450       .  S
O114        C122   1.290       .  A
O114       Eu146   2.456       .  S
O115        C121   1.291       .  A
O115       Eu117   2.459       .  S
O116        C120   1.292   1_545  A
O116       Eu117   2.464       .  S
Eu117       O127   2.357       .  S
Eu117       O119   2.344   1_545  S
Eu117       O118   2.350       .  S
Eu117       O125   2.354   1_545  S
O118       Eu147   2.350       .  S
O118       Eu144   2.340       .  S
O119       Eu145   2.352       .  S
O119       Eu146   2.350       .  S
C120        C677   1.485       .  S
C121        C653   1.482       .  S
C122        C245   1.476       .  S
C123        C221   1.475       .  S
H124        O125   0.966       .  S
O125       Eu146   2.353       .  S
O125       Eu144   2.354   1_565  S
H126        O127   0.966       .  S
O127       Eu145   2.350   1_545  S
O127       Eu147   2.359       .  S
O128        C151   1.289       .  A
O128       Eu144   2.450   1_565  S
O129        C152   1.292       .  A
O129       Eu145   2.464       .  S
O130        C153   1.292       .  A
O130       Eu146   2.463       .  S
O131        C154   1.291       .  A
O131       Eu147   2.456       .  S
O132        C155   1.287       .  A
O132       Eu147   2.443       .  S
O133        C156   1.291       .  A
O133       Eu146   2.460       .  S
O134        C157   1.291       .  A
O134       Eu148   2.453       .  S
O135        C158   1.288       .  A
O135       Eu148   2.446   1_545  S
O136        C157   1.291       .  A
O136       Eu146   2.460       .  S
O137        C158   1.293       .  A
O137       Eu147   2.473       .  S
O138        C153   1.290       .  A
O138       Eu144   2.450   1_565  S
O139        C156   1.292       .  A
O139       Eu145   2.455       .  S
O140        C155   1.295       .  A
O140       Eu145   2.475   1_545  S
O141        C154   1.291       .  A
O141       Eu144   2.458       .  S
O142        C151   1.292       .  A
O142       Eu148   2.461       .  S
O143        C152   1.291       .  A
O143       Eu148   2.459       .  S
Eu144       O162   2.354       .  S
Eu144       O150   2.353   1_545  S
Eu145       O149   2.353   1_565  S
Eu145       O160   2.358       .  S
Eu146       O160   2.355       .  S
Eu146       O150   2.347       .  S
Eu147       O149   2.351       .  S
Eu147       O162   2.349       .  S
Eu148       O149   2.355   1_565  S
Eu148       O160   2.354       .  S
Eu148       O162   2.359   1_565  S
Eu148       O150   2.349       .  S
C151        C638   1.480       .  S
C152        C605   1.479       .  S
C153        C389   1.481       .  S
C154        C374   1.482       .  S
C155        C317   1.494       .  S
C156        C350   1.492       .  S
C157        C269   1.483       .  S
C158        C302   1.468       .  S
H159        O160   0.966       .  S
H161        O162   0.966       .  S
O163        C174   1.290       .  A
O163       Eu199   2.454       .  S
O164        C175   1.292       .  A
O164       Eu198   2.462       .  S
O165        C176   1.290       .  A
O165       Eu171   2.454       .  S
O166        C177   1.293       .  A
O166       Eu171   2.463   1_556  S
O167        C177   1.290       .  A
O167       Eu201   2.462       .  S
O168        C176   1.291       .  A
O168       Eu200   2.456       .  S
O169        C175   1.291   1_554  A
O169       Eu171   2.455       .  S
O170        C174   1.290       .  A
O170       Eu171   2.452       .  S
Eu171       O181   2.353   1_554  S
Eu171       O173   2.351       .  S
Eu171       O172   2.350   1_554  S
Eu171       O179   2.353       .  S
O172       Eu201   2.351       .  S
O172       Eu198   2.350       .  S
O173       Eu199   2.348       .  S
O173       Eu200   2.346       .  S
C174        C581   1.472       .  S
C175        C566   1.477       .  S
C176        C437   1.476       .  S
C177        C461   1.502       .  S
H178        O179   0.966       .  S
O179       Eu200   2.354       .  S
O179       Eu198   2.358   1_554  S
H180        O181   0.966       .  S
O181       Eu199   2.356   1_556  S
O181       Eu201   2.352       .  S
O182        C205   1.292       .  A
O182       Eu198   2.466       .  S
O183        C206   1.292       .  A
O183       Eu199   2.461       .  S
O184        C207   1.291       .  A
O184       Eu200   2.457       .  S
O185        C208   1.290       .  A
O185       Eu201   2.452       .  S
O186        C209   1.291       .  A
O186       Eu201   2.461       .  S
O187        C210   1.292       .  A
O187       Eu200   2.463       .  S
O188        C211   1.291       .  A
O188       Eu202   2.457   1_554  S
O189        C212   1.292       .  A
O189       Eu202   2.464       .  S
O190        C211   1.291       .  A
O190       Eu200   2.455       .  S
O191        C212   1.291       .  A
O191       Eu201   2.460       .  S
O192        C207   1.290       .  A
O192       Eu198   2.450   1_554  S
O193        C210   1.290       .  A
O193       Eu199   2.456       .  S
O194        C209   1.291       .  A
O194       Eu199   2.454   1_556  S
O195        C208   1.292       .  A
O195       Eu198   2.465       .  S
O196        C205   1.293       .  A
O196       Eu202   2.472       .  S
O197        C206   1.292       .  A
O197       Eu202   2.462   1_554  S
Eu198       O216   2.351       .  S
Eu198       O204   2.353   1_556  S
Eu199       O203   2.354   1_554  S
Eu199       O214   2.352       .  S
Eu200       O214   2.352       .  S
Eu200       O204   2.355       .  S
Eu201       O203   2.353       .  S
Eu201       O216   2.356       .  S
Eu202       O203   2.355       .  S
Eu202       O214   2.358   1_556  S
Eu202       O216   2.352       .  S
Eu202       O204   2.351   1_556  S
C205        C509   1.488       .  S
C206        C542   1.480       .  S
C207        C254   1.477       .  S
C208        C278   1.477       .  S
C209        C293   1.487       .  S
C210        C230   1.482       .  S
C211        C422   1.475       .  S
C212        C494   1.479       .  S
H213        O214   0.965       .  S
H215        O216   0.966       .  S
C217        C218   1.403       .  A
C217        C222   1.404       .  A
C217        H227   1.083       .  S
C218        C223   1.477       .  S
C218        C219   1.411       .  A
C219        C220   1.396       .  A
C219        S224   1.806       .  S
C220        C221   1.403       .  A
C220        H225   1.084       .  S
C221        C222   1.413       .  A
C222        S226   1.809       .  S
C223        C228   1.408       .  A
C223        C232   1.399       .  A
S224        H240   1.403       .  S
S226        H237   1.407       .  S
C228        C229   1.405       .  A
C228        S233   1.807       .  S
C229        C230   1.407       .  A
C229        H234   1.083       .  S
C230        C231   1.417       .  A
C231        C232   1.397       .  A
C231        S235   1.804       .  S
C232        H236   1.084       .  S
S233        H238   1.407       .  S
S235        H239   1.407       .  S
C241        C242   1.401       .  A
C241        C246   1.399       .  A
C241        H251   1.084       .  S
C242        C247   1.476       .  S
C242        C243   1.411       .  A
C243        C244   1.399       .  A
C243        S248   1.804       .  S
C244        C245   1.404       .  A
C244        H249   1.084       .  S
C245        C246   1.414       .  A
C246        S250   1.804       .  S
C247        C252   1.407       .  A
C247        C256   1.401       .  A
S248        H264   1.405       .  S
S250        H261   1.407       .  S
C252        C253   1.401       .  A
C252        S257   1.806       .  S
C253        C254   1.406       .  A
C253        H258   1.083       .  S
C254        C255   1.415       .  A
C255        C256   1.398       .  A
C255        S259   1.805       .  S
C256        H260   1.084       .  S
S257        H262   1.407       .  S
S259        H263   1.408       .  S
C265        C266   1.402       .  A
C265        C270   1.400       .  A
C265        H275   1.084       .  S
C266        C271   1.478       .  S
C266        C267   1.411       .  A
C267        C268   1.399       .  A
C267        S272   1.807       .  S
C268        C269   1.407       .  A
C268        H273   1.084       .  S
C269        C270   1.416       .  A
C270        S274   1.804       .  S
C271        C276   1.408       .  A
C271        C280   1.401       .  A
S272        H288   1.404       .  S
S274        H285   1.408       .  S
C276        C277   1.403       .  A
C276        S281   1.806       .  S
C277        C278   1.406       .  A
C277        H282   1.083       .  S
C278        C279   1.414       .  A
C279        C280   1.399       .  A
C279        S283   1.804       .  S
C280        H284   1.084       .  S
S281        H286   1.407       .  S
S283        H287   1.407       .  S
C289        C290   1.401       .  A
C289        C294   1.399       .  A
C289        H299   1.084       .  S
C290        C295   1.482       .  S
C290        C291   1.412       .  A
C291        C292   1.399       .  A
C291        S296   1.804       .  S
C292        C293   1.408       .  A
C292        H297   1.084       .  S
C293        C294   1.418       .  A
C294        S298   1.801       .  S
C295        C300   1.411       .  A
C295        C304   1.403       .  A
S296        H312   1.406       .  S
S298        H309   1.408       .  S
C300        C301   1.402       .  A
C300        S305   1.807       .  S
C301        C302   1.402       .  A
C301        H306   1.083       .  S
C302        C303   1.413       .  A
C303        C304   1.400       .  A
C303        S307   1.808       .  S
C304        H308   1.084       .  S
S305        H310   1.407       .  S
S307        H311   1.402       .  S
C313        C314   1.401       .  A
C313        C318   1.399       .  A
C313        H323   1.084       .  S
C314        C319   1.485       .  S
C314        C315   1.412       .  A
C315        C316   1.400       .  A
C315        S320   1.806       .  S
C316        C317   1.409       .  A
C316        H321   1.083       .  S
C317        C318   1.423       .  A
C318        S322   1.804       .  S
C319        C324   1.411       .  A
C319        C328   1.403       .  A
S320        H336   1.405       .  S
S322        H333   1.405       .  S
C324        C325   1.403       .  A
C324        S329   1.807       .  S
C325        C326   1.405       .  A
C325        H330   1.083       .  S
C326        C327   1.415       .  A
C327        C328   1.400       .  A
C327        S331   1.804       .  S
C328        H332   1.084       .  S
S329        H334   1.407       .  S
S331        H335   1.407       .  S
C337        C338   1.403       .  A
C337        C342   1.399       .  A
C337        H347   1.084       .  S
C338        C343   1.479       .  S
C338        C339   1.413       .  A
C339        C340   1.399       .  A
C339        S344   1.805       .  S
C340        C341   1.403       .  A
C340        H345   1.084       .  S
C341        C342   1.414       .  A
C342        S346   1.805       .  S
C343        C348   1.407       .  A
C343        C352   1.400       .  A
S344        H360   1.406       .  S
S346        H357   1.408       .  S
C348        C349   1.400       .  A
C348        S353   1.807       .  S
C349        C350   1.409       .  A
C349        H354   1.081       .  S
C350        C351   1.420       .  A
C351        C352   1.399       .  A
C351        S355   1.802       .  S
C352        H356   1.084       .  S
S353        H358   1.407       .  S
S355        H359   1.408       .  S
C361        C362   1.402       .  A
C361        C366   1.400       .  A
C361        H371   1.084       .  S
C362        C367   1.482       .  S
C362        C363   1.412       .  A
C363        C364   1.400       .  A
C363        S368   1.804       .  S
C364        C365   1.406       .  A
C364        H369   1.084       .  S
C365        C366   1.418       .  A
C366        S370   1.804       .  S
C367        C372   1.410       .  A
C367        C376   1.401       .  A
S368        H384   1.406       .  S
S370        H381   1.406       .  S
C372        C373   1.406       .  A
C372        S377   1.806       .  S
C373        C374   1.408       .  A
C373        H378   1.083       .  S
C374        C375   1.415       .  A
C375        C376   1.398       .  A
C375        S379   1.804       .  S
C376        H380   1.084       .  S
S377        H382   1.407       .  S
S379        H383   1.408       .  S
C385        C386   1.402       .  A
C385        C390   1.398       .  A
C385        H395   1.084       .  S
C386        C391   1.477       .  S
C386        C387   1.413       .  A
C387        C388   1.401       .  A
C387        S392   1.808       .  S
C388        C389   1.406       .  A
C388        H393   1.084       .  S
C389        C390   1.415       .  A
C390        S394   1.804       .  S
C391        C396   1.409       .  A
C391        C400   1.401       .  A
S392        H408   1.403       .  S
S394        H405   1.408       .  S
C396        C397   1.403       .  A
C396        S401   1.807       .  S
C397        C398   1.405       .  A
C397        H402   1.083       .  S
C398        C399   1.414       .  A
C399        C400   1.399       .  A
C399        S403   1.804       .  S
C400        H404   1.084       .  S
S401        H406   1.407       .  S
S403        H407   1.407       .  S
C409        C410   1.401       .  A
C409        C414   1.400       .  A
C409        H419   1.084       .  S
C410        C415   1.478       .  S
C410        C411   1.410       .  A
C411        C412   1.399       .  A
C411        S416   1.804       .  S
C412        C413   1.407       .  A
C412        H417   1.084       .  S
C413        C414   1.417       .  A
C414        S418   1.804       .  S
C415        C420   1.408       .  A
C415        C424   1.401       .  A
S416        H432   1.406       .  S
S418        H429   1.408       .  S
C420        C421   1.402       .  A
C420        S425   1.806       .  S
C421        C422   1.405       .  A
C421        H426   1.083       .  S
C422        C423   1.415       .  A
C423        C424   1.399       .  A
C423        S427   1.805       .  S
C424        H428   1.084       .  S
S425        H430   1.407       .  S
S427        H431   1.406       .  S
C433        C434   1.401       .  A
C433        C438   1.398       .  A
C433        H443   1.084       .  S
C434        C439   1.474       .  S
C434        C435   1.411       .  A
C435        C436   1.399       .  A
C435        S440   1.806       .  S
C436        C437   1.406       .  A
C436        H441   1.084       .  S
C437        C438   1.415       .  A
C438        S442   1.805       .  S
C439        C444   1.407       .  A
C439        C448   1.401       .  A
S440        H456   1.404       .  S
S442        H453   1.406       .  S
C444        C445   1.400       .  A
C444        S449   1.807       .  S
C445        C446   1.404       .  A
C445        H450   1.083       .  S
C446        C447   1.416       .  A
C447        C448   1.399       .  A
C447        S451   1.805       .  S
C448        H452   1.084       .  S
S449        H454   1.407       .  S
S451        H455   1.407       .  S
C457        C458   1.401       .  A
C457        C462   1.405       .  A
C457        H467   1.082       .  S
C458        C463   1.490       .  S
C458        C459   1.410       .  A
C459        C460   1.401       .  A
C459        S464   1.804       .  S
C460        C461   1.412       .  A
C460        H465   1.083       .  S
C461        C462   1.425       .  A
C462        S466   1.811       .  S
C463        C468   1.413       .  A
C463        C472   1.404       .  A
S464        H480   1.407       .  S
S466        H477   1.406       .  S
C468        C469   1.405       .  A
C468        S473   1.808       .  S
C469        C470   1.403       .  A
C469        H474   1.083       .  S
C470        C471   1.414       .  A
C471        C472   1.401       .  A
C471        S475   1.806       .  S
C472        H476   1.084       .  S
S473        H478   1.407       .  S
S475        H479   1.404       .  S
C481        C482   1.402       .  A
C481        C486   1.402       .  A
C481        H491   1.084       .  S
C482        C487   1.482       .  S
C482        C483   1.410       .  A
C483        C484   1.399       .  A
C483        S488   1.804       .  S
C484        C485   1.408       .  A
C484        H489   1.084       .  S
C485        C486   1.420       .  A
C486        S490   1.804       .  S
C487        C492   1.409       .  A
C487        C496   1.402       .  A
S488        H504   1.406       .  S
S490        H501   1.408       .  S
C492        C493   1.404       .  A
C492        S497   1.807       .  S
C493        C494   1.405       .  A
C493        H498   1.083       .  S
C494        C495   1.414       .  A
C495        C496   1.400       .  A
C495        S499   1.804       .  S
C496        H500   1.084       .  S
S497        H502   1.407       .  S
S499        H503   1.407       .  S
C505        C506   1.402   1_554  A
C505        C510   1.402       .  A
C505        H515   1.084       .  S
C506        C511   1.485       .  S
C506        C507   1.412       .  A
C507        C508   1.403       .  A
C507        S512   1.803       .  S
C508        C509   1.407       .  A
C508        H513   1.084       .  S
C509        C510   1.417   1_556  A
C510        S514   1.804       .  S
C511        C516   1.409       .  A
C511        C520   1.402   1_556  A
S512        H528   1.405       .  S
S514        H525   1.407       .  S
C516        C517   1.406       .  A
C516        S521   1.806       .  S
C517        C518   1.407       .  A
C517        H522   1.083       .  S
C518        C519   1.416   1_556  A
C519        C520   1.403       .  A
C519        S523   1.805       .  S
C520        H524   1.084       .  S
S521        H526   1.406       .  S
S523        H527   1.407       .  S
C529        C530   1.402       .  A
C529        C534   1.400       .  A
C529        H539   1.084       .  S
C530        C535   1.478       .  S
C530        C531   1.410   1_554  A
C531        C532   1.398       .  A
C531        S536   1.803       .  S
C532        C533   1.405   1_556  A
C532        H537   1.084       .  S
C533        C534   1.416       .  A
C534        S538   1.805       .  S
C535        C540   1.408   1_554  A
C535        C544   1.400       .  A
S536        H552   1.406       .  S
S538        H549   1.408       .  S
C540        C541   1.404       .  A
C540        S545   1.806       .  S
C541        C542   1.406   1_556  A
C541        H546   1.083       .  S
C542        C543   1.416       .  A
C543        C544   1.398       .  A
C543        S547   1.803       .  S
C544        H548   1.084       .  S
S545        H550   1.407       .  S
S547        H551   1.406       .  S
C553        C554   1.400   1_554  A
C553        C558   1.400       .  A
C553        H563   1.084       .  S
C554        C559   1.480       .  S
C554        C555   1.410       .  A
C555        C556   1.400       .  A
C555        S560   1.804       .  S
C556        C557   1.408       .  A
C556        H561   1.084       .  S
C557        C558   1.420   1_556  A
C558        S562   1.804       .  S
C559        C564   1.409       .  A
C559        C568   1.402   1_556  A
S560        H576   1.406       .  S
S562        H573   1.408       .  S
C564        C565   1.403       .  A
C564        S569   1.806       .  S
C565        C566   1.404       .  A
C565        H570   1.083       .  S
C566        C567   1.415   1_556  A
C567        C568   1.400       .  A
C567        S571   1.805       .  S
C568        H572   1.084       .  S
S569        H574   1.407       .  S
S571        H575   1.406       .  S
C577        C578   1.402       .  A
C577        C582   1.399       .  A
C577        H587   1.084       .  S
C578        C583   1.475       .  S
C578        C579   1.411   1_554  A
C579        C580   1.397       .  A
C579        S584   1.804       .  S
C580        C581   1.403   1_556  A
C580        H585   1.084       .  S
C581        C582   1.413       .  A
C582        S586   1.804       .  S
C583        C588   1.406   1_554  A
C583        C592   1.400       .  A
S584        H600   1.404       .  S
S586        H597   1.408       .  S
C588        C589   1.401       .  A
C588        S593   1.807       .  S
C589        C590   1.407   1_556  A
C589        H594   1.083       .  S
C590        C591   1.418       .  A
C591        C592   1.399       .  A
C591        S595   1.804       .  S
C592        H596   1.084       .  S
S593        H598   1.407       .  S
S595        H599   1.407       .  S
C601        C602   1.402       .  A
C601        C606   1.400       .  A
C601        H611   1.084       .  S
C602        C607   1.481       .  S
C602        C603   1.412   1_565  A
C603        C604   1.399       .  A
C603        S608   1.803       .  S
C604        C605   1.404   1_545  A
C604        H609   1.084       .  S
C605        C606   1.414       .  A
C606        S610   1.802       .  S
C607        C612   1.407       .  A
C607        C616   1.398   1_565  A
S608        H624   1.406       .  S
S610        H621   1.407       .  S
C612        C613   1.404       .  A
C612        S617   1.806       .  S
C613        C614   1.410       .  A
C613        H618   1.083       .  S
C614        C615   1.421   1_565  A
C615        C616   1.402       .  A
C615        S619   1.806       .  S
C616        H620   1.083       .  S
S617        H622   1.406       .  S
S619        H623   1.406       .  S
C625        C626   1.401   1_565  A
C625        C630   1.396       .  A
C625        H635   1.084       .  S
C626        C631   1.477       .  S
C626        C627   1.411       .  A
C627        C628   1.399       .  A
C627        S632   1.804       .  S
C628        C629   1.406       .  A
C628        H633   1.084       .  S
C629        C630   1.415   1_545  A
C630        S634   1.804       .  S
C631        C636   1.408       .  A
C631        C640   1.400   1_545  A
S632        H648   1.406       .  S
S634        H645   1.407       .  S
C636        C637   1.402       .  A
C636        S641   1.807       .  S
C637        C638   1.406   1_545  A
C637        H642   1.083       .  S
C638        C639   1.417       .  A
C639        C640   1.398       .  A
C639        S643   1.804       .  S
C640        H644   1.084       .  S
S641        H646   1.407       .  S
S643        H647   1.407       .  S
C649        C650   1.402       .  A
C649        C654   1.400       .  A
C649        H659   1.084       .  S
C650        C655   1.481       .  S
C650        C651   1.411   1_545  A
C651        C652   1.400       .  A
C651        S656   1.804       .  S
C652        C653   1.406   1_565  A
C652        H657   1.084       .  S
C653        C654   1.417       .  A
C654        S658   1.804       .  S
C655        C660   1.408   1_545  A
C655        C664   1.402       .  A
S656        H672   1.405       .  S
S658        H669   1.407       .  S
C660        C661   1.404       .  A
C660        S665   1.806       .  S
C661        C662   1.405   1_565  A
C661        H666   1.083       .  S
C662        C663   1.417       .  A
C663        C664   1.402       .  A
C663        S667   1.804       .  S
C664        H668   1.084       .  S
S665        H670   1.406       .  S
S667        H671   1.407       .  S
C673        C674   1.401       .  A
C673        C678   1.400       .  A
C673        H683   1.084       .  S
C674        C679   1.481       .  S
C674        C675   1.411   1_565  A
C675        C676   1.402       .  A
C675        S680   1.804       .  S
C676        C677   1.406   1_545  A
C676        H681   1.084       .  S
C677        C678   1.417       .  A
C678        S682   1.803       .  S
C679        C684   1.408   1_565  A
C679        C688   1.402       .  A
S680        H696   1.405       .  S
S682        H693   1.407       .  S
C684        C685   1.404       .  A
C684        S689   1.806       .  S
C685        C686   1.406   1_545  A
C685        H690   1.083       .  S
C686        C687   1.416       .  A
C687        C688   1.401       .  A
C687        S691   1.805       .  S
C688        H692   1.084       .  S
S689        H694   1.407       .  S
S691        H695   1.407       .  S
C697        C698   1.401   1_455  A
C697        C702   1.398       .  A
C697        H707   1.084       .  S
C698        C703   1.474       .  S
C698        C699   1.410       .  A
C699        C700   1.398       .  A
C699        S704   1.807       .  S
C700        C701   1.408   1_655  A
C700        H705   1.084       .  S
C701        C702   1.416       .  A
C702        S706   1.803       .  S
C703        C708   1.406       .  A
C703        C712   1.401   1_655  A
S704        H720   1.404       .  S
S706        H717   1.408       .  S
C708        C709   1.400       .  A
C708        S713   1.805       .  S
C709        C710   1.403   1_655  A
C709        H714   1.080       .  S
C710        C711   1.417       .  A
C711        C712   1.400       .  A
C711        S715   1.805       .  S
C712        H716   1.084       .  S
S713        H718   1.404       .  S
S715        H719   1.407       .  S
C721        C722   1.401   1_455  A
C721        C726   1.399       .  A
C721        H731   1.084       .  S
C722        C727   1.480       .  S
C722        C723   1.410       .  A
C723        C724   1.398       .  A
C723        S728   1.803       .  S
C724        C725   1.405       .  A
C724        H729   1.084       .  S
C725        C726   1.419   1_655  A
C726        S730   1.804       .  S
C727        C732   1.408       .  A
C727        C736   1.402   1_655  A
S728        H744   1.406       .  S
S730        H741   1.408       .  S
C732        C733   1.403       .  A
C732        S737   1.807       .  S
C733        C734   1.407   1_655  A
C733        H738   1.083       .  S
C734        C735   1.414       .  A
C735        C736   1.403       .  A
C735        S739   1.808       .  S
C736        H740   1.083       .  S
S737        H742   1.407       .  S
S739        H743   1.407       .  S
C745        C746   1.401   1_455  A
C745        C750   1.398       .  A
C745        H755   1.084       .  S
C746        C751   1.475       .  S
C746        C747   1.410       .  A
C747        C748   1.399       .  A
C747        S752   1.805       .  S
C748        C749   1.406   1_655  A
C748        H753   1.084       .  S
C749        C750   1.416       .  A
C750        S754   1.804       .  S
C751        C756   1.407       .  A
C751        C760   1.402   1_655  A
S752        H768   1.404       .  S
S754        H765   1.407       .  S
C756        C757   1.401       .  A
C756        S761   1.806       .  S
C757        C758   1.404   1_655  A
C757        H762   1.083       .  S
C758        C759   1.415       .  A
C759        C760   1.400       .  A
C759        S763   1.805       .  S
C760        H764   1.084       .  S
S761        H766   1.407       .  S
S763        H767   1.407       .  S
C769        C770   1.400       .  A
C769        C774   1.398       .  A
C769        H779   1.084       .  S
C770        C775   1.473       .  S
C770        C771   1.411   1_655  A
C771        C772   1.398       .  A
C771        S776   1.806       .  S
C772        C773   1.405   1_455  A
C772        H777   1.084       .  S
C773        C774   1.417       .  A
C774        S778   1.804       .  S
C775        C780   1.408   1_655  A
C775        C784   1.400       .  A
S776        H792   1.403       .  S
S778        H789   1.407       .  S
C780        C781   1.401       .  A
C780        S785   1.806       .  S
C781        C782   1.403   1_455  A
C781        H786   1.083       .  S
C782        C783   1.414       .  A
C783        C784   1.401       .  A
C783        S787   1.809       .  S
C784        H788   1.083       .  S
S785        H790   1.407       .  S
S787        H791   1.407       .  S
