geometry optimzed in LAMMPS
_audit_creation_date              2020-11-30 
_audit_creation_method            'lammps2cif' 
_symmetry_space_group_name_H-M    'P1' 
_symmetry_Int_Tables_number       1 
_symmetry_cell_setting            triclinic 
loop_ 
_symmetry_equiv_pos_as_xyz 
  x,y,z 
_cell_length_a                    32.73691692 
_cell_length_b                    28.96732279884204 
_cell_length_c                    40.10678394642414 
_cell_angle_alpha                 89.42299326554955 
_cell_angle_beta                  90.02367205514203 
_cell_angle_gamma                 89.99703288427851 
loop_ 
_atom_site_label 
_atom_site_type_symbol 
_atom_site_fract_x 
_atom_site_fract_y 
_atom_site_fract_z 
_atom_site_charge 
N1          N  0.43228134  0.50388301  0.50147951    -0.34500
N2          N  0.49389231  0.57539572  0.49817189    -0.55000
N3          N  0.55862273  0.50344201  0.00630335    -0.34500
N4          N  0.49799211  0.43165499  0.01477077    -0.55000
C5          C  0.40961564  0.54228147  0.50651103     0.29100
C6          C  0.41335917  0.46478864  0.01922163     0.29100
C7          C  0.57772288  0.54366357  0.50948276     0.29100
C8          C  0.58075679  0.46783829  0.01883648     0.29100
C9          C  0.46084027  0.60053046  0.48906273     0.37700
C10         C  0.52701613  0.60108733  0.49015958     0.37700
C11         C  0.46516218  0.40378706  0.01139334     0.37700
C12         C  0.53133993  0.40499698  0.00992382     0.37700
C13         C  0.37338068  0.53022766  0.52231525    -0.19700
C14         C  0.37365281  0.48304154  0.52613985    -0.19700
C15         C  0.61392342  0.53197401  0.03168712    -0.19700
C16         C  0.61497411  0.48467472  0.03505338    -0.19700
C17         C  0.47304908  0.64237791  0.47523610    -0.20800
C18         C  0.51499762  0.64272203  0.47593050    -0.20800
C19         C  0.47757535  0.35915215  0.00464081    -0.20800
C20         C  0.51956287  0.35993429  0.00349721    -0.20800
C21         C  0.41995160  0.58730729  0.49522600    -0.16100
C22         C  0.42436850  0.41794694  0.01610553    -0.16100
C23         C  0.57200087  0.42060923  0.01366153    -0.16100
C24         C  0.56764622  0.58853130  0.49781220    -0.16100
H25         H  0.34906468  0.55292740  0.53020156     0.16800
H26         H  0.35417625  0.45969957  0.04578039     0.16800
H27         H  0.63500622  0.55584617  0.53760780     0.16800
H28         H  0.63845219  0.46491077  0.04774145     0.16800
H29         H  0.45384469  0.66994630  0.46576824     0.15100
H30         H  0.53431366  0.67060397  0.46714620     0.15000
H31         H  0.45840925  0.32917690  0.00100335     0.15100
H32         H  0.53898190  0.33050680  0.99877725     0.15000
H33         H  0.45884496  0.50190316  0.48729562     0.28300
H34         H  0.53388069  0.50065809  0.99007963     0.28300
N35         N  0.93247131  0.00547036  0.47041742    -0.34500
N36         N  0.99470083  0.93468742  0.46624472    -0.55000
N37         N  0.05816888  0.00444387  0.47569978    -0.34500
N38         N  0.99530637  0.07554074  0.47767505    -0.55000
C39         C  0.90981884  0.96927365  0.45991673     0.29100
C40         C  0.91020192  0.04425563  0.46507294     0.29100
C41         C  0.08026696  0.96841439  0.46411896     0.29100
C42         C  0.08065618  0.04321486  0.47068183     0.29100
C43         C  0.96136689  0.90718763  0.46860560     0.37700
C44         C  0.02765348  0.90685284  0.46946592     0.37700
C45         C  0.96185202  0.10173152  0.48358232     0.37700
C46         C  0.02815367  0.10124595  0.48615186     0.37700
C47         C  0.87253084  0.98519706  0.44810186    -0.19700
C48         C  0.87278936  0.03245743  0.45129168    -0.19700
C49         C  0.11716005  0.98437236  0.45163676    -0.19700
C50         C  0.11724504  0.03154392  0.45543284    -0.19700
C51         C  0.97328148  0.86164983  0.47329183    -0.20800
C52         C  0.01526171  0.86145354  0.47387082    -0.20800
C53         C  0.97355250  0.14431725  0.49580234    -0.20800
C54         C  0.01542166  0.14387160  0.49771715    -0.20800
C55         C  0.92069816  0.92212634  0.46312564    -0.16100
C56         C  0.92140793  0.08941597  0.47476989    -0.16100
C57         C  0.06936408  0.08849585  0.48051353    -0.16100
C58         C  0.06860780  0.92133626  0.46554113    -0.16100
H59         H  0.84741990  0.96486083  0.43863959     0.16800
H60         H  0.84783434  0.05535579  0.44481761     0.16800
H61         H  0.14134800  0.96417402  0.44057678     0.16800
H62         H  0.14148201  0.05453502  0.44750855     0.16800
H63         H  0.95388464  0.83149775  0.47515621     0.15100
H64         H  0.03446572  0.83120958  0.47646217     0.15000
H65         H  0.95417280  0.17319925  0.50205159     0.15100
H66         H  0.03424972  0.17224273  0.50598845     0.15000
H67         H  0.95938972  0.00328486  0.48407809     0.28300
H68         H  0.03113259  0.00211958  0.48926594     0.28300
O69         O  0.17011196  0.29597156  0.03924400    -0.76300
C70         C  0.18522506  0.31556599  0.42966540     0.84700
O71         O  0.20650530  0.14668408  0.49827673    -0.77500
O72         O  0.29748362  0.23269437  0.42606893    -0.78900
O73         O  0.31729879  0.32893111  0.02511104    -0.78700
O74         O  0.22772705  0.31358682  0.06617567    -0.77400
Zn75       Zn  0.18589000  0.26228002  0.49628047     1.55700
O76         O  0.31155033  0.33229458  0.46520570    -0.78800
Cd77       Cd  0.27220538  0.28149780  0.03802860     1.59700
Cd78       Cd  0.25950065  0.18606527  0.49773507     1.59600
O79         O  0.30029435  0.23274919  0.06799919    -0.78700
O80         O  0.24524145  0.25364663  0.49599055    -1.89300
Cd81       Cd  0.26861801  0.28200064  0.45448430     1.59900
O82         O  0.29495620  0.16664578  0.04015229    -0.78700
O83         O  0.22361538  0.31213017  0.42558932    -0.77400
C84         C  0.16884731  0.15766354  0.49649157     0.85200
C85         C  0.18899398  0.31497148  0.06332803     0.84800
O86         O  0.16710719  0.29868240  0.45516091    -0.76300
C87         C  0.32723803  0.34652053  0.49228560     0.85600
O88         O  0.15718164  0.19975502  0.49543661    -0.76400
C89         C  0.30732278  0.18980771  0.06503193     0.85800
C90         C  0.30527025  0.18998655  0.43027638     0.86100
O91         O  0.29365222  0.16737060  0.45602702    -0.78800
O92         O  0.68238531  0.22455834  0.45788133    -0.76300
C93         C  0.70382402  0.20629345  0.06658583     0.84700
O94         O  0.71016085  0.37541481  0.49392330    -0.77500
O95         O  0.81163344  0.29933373  0.06795533    -0.78900
O96         O  0.82746242  0.19515596  0.47091413    -0.78700
O97         O  0.73933551  0.21357635  0.42835145    -0.77400
Zn98       Zn  0.69963936  0.25941870  0.49910544     1.55700
O99         O  0.82988661  0.19723978  0.03012650    -0.78800
Cd100      Cd  0.78395870  0.24452628  0.45725436     1.59700
Cd101      Cd  0.76622710  0.34191394  0.49493347     1.59600
O102        O  0.81215930  0.29439943  0.42741220    -0.78700
O103        O  0.75810092  0.27322647  0.49739822    -1.89300
Cd104      Cd  0.78517592  0.24609619  0.04105764     1.59900
O105        O  0.79864799  0.36128743  0.45234993    -0.78700
O106        O  0.74175280  0.21386881  0.07109824    -0.77400
C107        C  0.67368816  0.36078956  0.49750171     0.85200
C108        C  0.70089398  0.20939348  0.43227909     0.84800
O109        O  0.68501830  0.22010020  0.04054782    -0.76300
C110        C  0.84150402  0.18143177  0.49903726     0.85600
O111        O  0.66565207  0.31791888  0.50070825    -0.76400
C112        C  0.81457032  0.33827134  0.42875304     0.85800
C113        C  0.81509577  0.34270766  0.06298387     0.86100
O114        O  0.80073032  0.36293122  0.03715435    -0.78800
O115        O  0.67844857  0.78872418  0.02043812    -0.76300
C116        C  0.69730444  0.80139311  0.41305507     0.84700
O117        O  0.70700601  0.63618256  0.47772474    -0.77500
O118        O  0.80930075  0.71939829  0.41148327    -0.78900
O119        O  0.82032184  0.81734707  0.01147256    -0.78700
O120        O  0.73379763  0.79441739  0.05251651    -0.77400
Zn121      Zn  0.69562700  0.75198480  0.48082861     1.55700
O122        O  0.82460833  0.81812850  0.45430166    -0.78800
Cd123      Cd  0.77866817  0.76544959  0.02287119     1.59700
Cd124      Cd  0.76229467  0.67065226  0.47865071     1.59600
O125        O  0.80718857  0.71397758  0.05069081    -0.78700
O126        O  0.75415818  0.73924376  0.48019930    -1.89300
Cd127      Cd  0.78065276  0.76926174  0.44027312     1.59900
O128        O  0.79590865  0.64903775  0.02239364    -0.78700
O129        O  0.73605589  0.79948480  0.41004662    -0.77400
C130        C  0.67050199  0.65033680  0.48138578     0.85200
C131        C  0.69598782  0.80146782  0.04711207     0.84800
O132        O  0.67870963  0.78528834  0.43852356    -0.76300
C133        C  0.83919360  0.82920980  0.48270622     0.85600
O134        O  0.66212380  0.69314029  0.48377555    -0.76400
C135        C  0.81056238  0.67043468  0.04728360     0.85800
C136        C  0.81141105  0.67548167  0.41325960     0.86100
O137        O  0.79507773  0.65218037  0.43680083    -0.78800
O138        O  0.31251316  0.78847958  0.43698278    -0.76300
C139        C  0.29475623  0.80064073  0.04644471     0.84700
O140        O  0.28071543  0.63654680  0.47742402    -0.77500
O141        O  0.18592402  0.71193524  0.05117870    -0.78900
O142        O  0.16820657  0.82179454  0.45290713    -0.78700
O143        O  0.25488413  0.80245967  0.40881324    -0.77400
Zn144      Zn  0.29609553  0.75239959  0.47807516     1.55700
O145        O  0.16766016  0.81162228  0.01077781    -0.78800
Cd146      Cd  0.21055689  0.77150166  0.43863144     1.59700
Cd147      Cd  0.22645330  0.67341249  0.47804950     1.59600
O148        O  0.18168469  0.72210379  0.40951366    -0.78700
O149        O  0.23727538  0.74161536  0.47851383    -1.89300
Cd150      Cd  0.21238587  0.76335840  0.02229620     1.59900
O151        O  0.19391737  0.65519851  0.43594034    -0.78700
O152        O  0.25657044  0.79526294  0.05101357    -0.77400
C153        C  0.31778258  0.64983767  0.47805091     0.85200
C154        C  0.29352966  0.80539870  0.41198982     0.84800
O155        O  0.31301566  0.78525789  0.02083467    -0.76300
C156        C  0.15861066  0.83812859  0.48134460     0.85600
O157        O  0.32735358  0.69244116  0.47825390    -0.76400
C158        C  0.17873321  0.67828242  0.41176876     0.85800
C159        C  0.18123412  0.66865543  0.04745811     0.86100
O160        O  0.19417465  0.64730591  0.02193018    -0.78800
N161        N  0.00339331  0.42367557  0.19394270    -0.34500
N162        N  0.93963561  0.43239685  0.24441546    -0.55000
N163        N  0.00286221  0.42098482  0.29481679    -0.34500
N164        N  0.06705624  0.41718121  0.24453367    -0.55000
C165        C  0.97097839  0.43439699  0.17442068     0.29100
C166        C  0.03715243  0.42539026  0.17451823     0.29100
C167        C  0.97017193  0.43053144  0.31417911     0.29100
C168        C  0.03652937  0.42419895  0.31421487     0.29100
C169        C  0.91577442  0.42707601  0.21717246     0.37700
C170        C  0.91553512  0.42432867  0.27126619     0.37700
C171        C  0.08933082  0.40506027  0.21760741     0.37700
C172        C  0.08924036  0.40499838  0.27169035     0.37700
C173        C  0.98442047  0.44377894  0.14225519    -0.19700
C174        C  0.02615426  0.43816599  0.14232441    -0.19700
C175        C  0.98324687  0.44064230  0.34616930    -0.19700
C176        C  0.02513249  0.43680792  0.34617080    -0.19700
C177        C  0.87592506  0.41772603  0.22682496    -0.20800
C178        C  0.87579945  0.41589701  0.26108718    -0.20800
C179        C  0.12659472  0.38692408  0.22770223    -0.20800
C180        C  0.12654850  0.38692672  0.26197571    -0.20800
C181        C  0.92948498  0.42985623  0.18374309    -0.16100
C182        C  0.07654282  0.41019033  0.18408362    -0.16100
C183        C  0.07622499  0.40991003  0.30508317    -0.16100
C184        C  0.92891786  0.42461504  0.30480170    -0.16100
H185        H  0.96590106  0.45223345  0.12067879     0.16800
H186        H  0.04596786  0.44152999  0.12083706     0.16800
H187        H  0.96443576  0.44858182  0.36754456     0.16800
H188        H  0.04483106  0.44106185  0.36760198     0.16800
H189        H  0.84980759  0.41193129  0.21085152     0.15100
H190        H  0.84956985  0.40859445  0.27668700     0.15000
H191        H  0.15104046  0.37440991  0.21203756     0.15100
H192        H  0.15091839  0.37437547  0.27790009     0.15000
H193        H  0.00180836  0.40872547  0.21740752     0.28300
H194        H  0.00164882  0.40551051  0.27169233     0.28300
N195        N  0.99467274  0.57516006  0.18045912    -0.34500
N196        N  0.93097054  0.57356032  0.23125669    -0.55000
N197        N  0.99541926  0.57666868  0.28127960    -0.34500
N198        N  0.05905728  0.57349723  0.23074635    -0.55000
C199        C  0.96125578  0.56928670  0.16114574     0.29100
C200        C  0.02786535  0.56958931  0.16086414     0.29100
C201        C  0.96226388  0.57027852  0.30084438     0.29100
C202        C  0.02881186  0.57004615  0.30056663     0.29100
C203        C  0.90764479  0.58296773  0.20419545     0.37700
C204        C  0.90819653  0.58425016  0.25822478     0.37700
C205        C  0.08207208  0.58284645  0.20352993     0.37700
C206        C  0.08239111  0.58356032  0.25753496     0.37700
C207        C  0.97338832  0.55915355  0.12888817    -0.19700
C208        C  0.01539458  0.55935317  0.12871123    -0.19700
C209        C  0.97471569  0.55861580  0.33290208    -0.19700
C210        C  0.01675048  0.55846207  0.33272459    -0.19700
C211        C  0.86926657  0.59777738  0.21406497    -0.20800
C212        C  0.86964160  0.59866442  0.24830987    -0.20800
C213        C  0.12080313  0.59689251  0.21310624    -0.20800
C214        C  0.12098582  0.59739309  0.24733946    -0.20800
C215        C  0.92059404  0.57880954  0.17073397    -0.16100
C216        C  0.06861442  0.57918206  0.17018039    -0.16100
C217        C  0.06928694  0.58055097  0.29103163    -0.16100
C218        C  0.92171121  0.58103356  0.29163349    -0.16100
H219        H  0.95398501  0.55371504  0.10742607     0.16800
H220        H  0.03456261  0.55406417  0.10710196     0.16800
H221        H  0.95550705  0.55253958  0.35446272     0.16800
H222        H  0.03623080  0.55225549  0.35411788     0.16800
H223        H  0.84389357  0.60773543  0.19824762     0.15100
H224        H  0.84458417  0.60929692  0.26406719     0.15000
H225        H  0.14607376  0.60657421  0.19711058     0.15900
H226        H  0.14642410  0.60745000  0.26290647     0.15000
H227        H  0.99480001  0.58949382  0.20398973     0.28300
H228        H  0.99528076  0.59260985  0.25802720     0.28300
N229        N  0.49411103  0.86136876  0.27999727    -0.34500
N230        N  0.55714478  0.86010509  0.22902291    -0.55000
N231        N  0.49335897  0.86212447  0.17807524    -0.34500
N232        N  0.43039524  0.86832328  0.22895011    -0.55000
C233        C  0.52778504  0.86534487  0.29938311     0.29100
C234        C  0.46119951  0.86993844  0.29936249     0.29100
C235        C  0.52690134  0.86837371  0.15886182     0.29100
C236        C  0.46032856  0.87138582  0.15884900     0.29100
C237        C  0.58073746  0.85069911  0.25593387     0.37700
C238        C  0.58031192  0.85174280  0.20185725     0.37700
C239        C  0.40648624  0.86229333  0.25611966     0.37700
C240        C  0.40616169  0.86194015  0.20206026     0.37700
C241        C  0.51607281  0.87642942  0.33156806    -0.19700
C242        C  0.47412032  0.87930973  0.33155990    -0.19700
C243        C  0.51500354  0.88173172  0.12697485    -0.19700
C244        C  0.47301073  0.88353590  0.12695402    -0.19700
C245        C  0.61938450  0.83719028  0.24580123    -0.20800
C246        C  0.61911273  0.83783249  0.21155388    -0.20800
C247        C  0.36659519  0.85341528  0.24640366    -0.20800
C248        C  0.36640971  0.85312348  0.21216682    -0.20800
C249        C  0.56841793  0.85582676  0.28947947    -0.16100
C250        C  0.41983387  0.86559086  0.28955630    -0.16100
C251        C  0.41914773  0.86536942  0.16853078    -0.16100
C252        C  0.56758030  0.85850444  0.16848422    -0.16100
H253        H  0.53565176  0.88113376  0.35302124     0.16800
H254        H  0.45524100  0.88661854  0.35301962     0.16800
H255        H  0.53451133  0.88853498  0.10570353     0.16800
H256        H  0.45395845  0.89207424  0.10570539     0.16800
H257        H  0.64512130  0.82790302  0.26143276     0.15100
H258        H  0.64462263  0.82919004  0.19563261     0.15000
H259        H  0.34037773  0.84747295  0.26230981     0.15100
H260        H  0.34003591  0.84704876  0.19652931     0.15000
H261        H  0.49324552  0.84776736  0.25627665     0.28300
H262        H  0.49281277  0.84634106  0.20134480     0.28300
N263        N  0.50595808  0.13323485  0.29891213    -0.34500
N264        N  0.57005174  0.13059369  0.24836114    -0.55000
N265        N  0.50680424  0.12855571  0.19741099    -0.34500
N266        N  0.44302520  0.12643069  0.24810167    -0.55000
C267        C  0.53944995  0.12834109  0.31839824     0.29100
C268        C  0.47287399  0.12480374  0.31828665     0.29100
C269        C  0.54036195  0.12114298  0.17851259     0.29100
C270        C  0.47374501  0.11940737  0.17834819     0.29100
C271        C  0.59303465  0.14171687  0.27512894     0.37700
C272        C  0.59351653  0.13845386  0.22114157     0.37700
C273        C  0.41884030  0.13379846  0.27484106     0.37700
C274        C  0.41935263  0.13260368  0.22080827     0.37700
C275        C  0.52752528  0.11667389  0.35058675    -0.19700
C276        C  0.48555166  0.11438557  0.35050758    -0.19700
C277        C  0.52847844  0.10689362  0.14704299    -0.19700
C278        C  0.48644319  0.10582650  0.14693104    -0.19700
C279        C  0.63168745  0.15538455  0.26492526    -0.20800
C280        C  0.63200181  0.15329752  0.23072088    -0.20800
C281        C  0.37932111  0.14355445  0.26451544    -0.20800
C282        C  0.37965897  0.14289289  0.23027146    -0.20800
C283        C  0.58003832  0.13832807  0.30866946    -0.16100
C284        C  0.43163473  0.13023564  0.30841742    -0.16100
C285        C  0.43263442  0.12711038  0.18756568    -0.16100
C286        C  0.58097785  0.13148117  0.18783975    -0.16100
H287        H  0.54700923  0.11127915  0.37208628     0.16800
H288        H  0.46650432  0.10690448  0.37194289     0.16800
H289        H  0.54803908  0.09921208  0.12606384     0.16800
H290        H  0.46738111  0.09707730  0.12585968     0.16800
H291        H  0.65698255  0.16591446  0.28048055     0.15100
H292        H  0.65757186  0.16197298  0.21474753     0.15000
H293        H  0.35300517  0.15046298  0.28001291     0.15100
H294        H  0.35360927  0.14906426  0.21420724     0.15000
H295        H  0.50555380  0.14774270  0.27521484     0.28300
H296        H  0.50632744  0.14526840  0.22010361     0.28300
C297        C  0.31840948  0.82322605  0.07167896    -0.16400
C298        C  0.33937973  0.83856149  0.09370049     0.07700
C299        C  0.36533931  0.85231122  0.11996261     0.09600
C300        C  0.38892486  0.86037790  0.14230120    -0.17200
C301        C  0.38944330  0.86174844  0.31573303    -0.16400
C302        C  0.36523055  0.85463508  0.33783973     0.07700
C303        C  0.33837564  0.84180737  0.36384908     0.09600
C304        C  0.31692626  0.82715252  0.38597129    -0.17200
C305        C  0.09724891  0.59020380  0.14371460    -0.16400
C306        C  0.11888501  0.60384817  0.12138095     0.07700
C307        C  0.14199736  0.62371023  0.09522914     0.09600
C308        C  0.16037455  0.64312610  0.07314249    -0.17200
C309        C  0.09746167  0.59397249  0.31711882    -0.16400
C310        C  0.11821175  0.61024652  0.33892052     0.07700
C311        C  0.14007699  0.63300296  0.36431996     0.09600
C312        C  0.15771646  0.65372717  0.38594869    -0.17200
C313        C  0.67327325  0.82052830  0.38622547    -0.16400
C314        C  0.65116400  0.83266775  0.36366190     0.07700
C315        C  0.62362682  0.84333517  0.33747051     0.09600
C316        C  0.59905806  0.85009701  0.31546228    -0.17200
C317        C  0.67168954  0.82249914  0.07257968    -0.16400
C318        C  0.64954939  0.83592538  0.09445659     0.07700
C319        C  0.62215593  0.84725886  0.12029360     0.09600
C320        C  0.59782317  0.85382754  0.14231254    -0.17200
C321        C  0.89380992  0.59403358  0.31801552    -0.16400
C322        C  0.87311271  0.60949049  0.34015115     0.07700
C323        C  0.85096306  0.63114045  0.36587810     0.09600
C324        C  0.83288485  0.65116590  0.38759666    -0.17200
C325        C  0.89179054  0.58979028  0.14433431    -0.16400
C326        C  0.87085170  0.60368310  0.12160478     0.07700
C327        C  0.84899619  0.62426981  0.09497672     0.09600
C328        C  0.83140934  0.64444221  0.07277826    -0.17200
C329        C  0.61074979  0.13845197  0.16142155    -0.16400
C330        C  0.63426542  0.14864101  0.13935928     0.07700
C331        C  0.66026767  0.16511491  0.11372452     0.09600
C332        C  0.68103275  0.18240820  0.09209139    -0.17200
C333        C  0.67735971  0.18810680  0.40636836    -0.16400
C334        C  0.65701582  0.17289807  0.38390811     0.07700
C335        C  0.63213672  0.15787439  0.35732090     0.09600
C336        C  0.60947388  0.14747141  0.33486935    -0.17200
C337        C  0.83615204  0.36969232  0.08756326    -0.16400
C338        C  0.85469392  0.38995749  0.10896688     0.07700
C339        C  0.87809179  0.40981008  0.13481549     0.09600
C340        C  0.90012063  0.42214419  0.15719517    -0.17200
C341        C  0.83610769  0.36259042  0.40256265    -0.16400
C342        C  0.85476816  0.38137851  0.38019689     0.07700
C343        C  0.87798867  0.40084434  0.35370426     0.09600
C344        C  0.89970852  0.41421115  0.33118915    -0.17200
C345        C  0.32879307  0.16720697  0.40501669    -0.16400
C346        C  0.35014940  0.15276648  0.38290631     0.07700
C347        C  0.37686083  0.14075612  0.35666520     0.09600
C348        C  0.40102901  0.13416437  0.33447061    -0.17200
C349        C  0.33082126  0.16724914  0.09063238    -0.16400
C350        C  0.35216995  0.15223106  0.11270506     0.07700
C351        C  0.37876992  0.13905449  0.13881718     0.09600
C352        C  0.40267330  0.13152194  0.16109516    -0.17200
C353        C  0.10346059  0.39531280  0.33179139    -0.16400
C354        C  0.12300465  0.37950836  0.35477369     0.07700
C355        C  0.14389016  0.35833060  0.38179054     0.09600
C356        C  0.16184828  0.33908669  0.40428256    -0.17200
C357        C  0.10401367  0.39539302  0.15782777    -0.16400
C358        C  0.12459079  0.37941192  0.13577531     0.07700
C359        C  0.14705149  0.35803785  0.11004600     0.09600
C360        C  0.16588515  0.33866754  0.08840537    -0.17200
C361        C  0.88954797  0.12616715  0.47292818    -0.14300
C362        C  0.87367004  0.14541662  0.50041591    -0.29500
H363        H  0.87780988  0.13569177  0.44847678     0.14700
H364        H  0.88675686  0.13415768  0.02952416     0.15300
C365        C  0.13828720  0.12003079  0.49553620    -0.14300
C366        C  0.10089407  0.12597662  0.48216802    -0.29500
H367        H  0.14793468  0.08519037  0.00700687     0.14700
H368        H  0.09252633  0.16004991  0.47287566     0.15300
C369        C  0.10037139  0.88515591  0.46050984    -0.14300
C370        C  0.12900346  0.87659672  0.48377120    -0.29500
H371        H  0.09776263  0.86286819  0.43898850     0.14700
H372        H  0.10961777  0.87173732  0.01116633     0.15300
C373        C  0.88793429  0.88686341  0.45883741    -0.14300
C374        C  0.87261089  0.86359323  0.48517387    -0.29500
H375        H  0.87509697  0.88204030  0.43414341     0.14700
H376        H  0.86747195  0.88982749  0.00996863     0.15300
C377        C  0.64023575  0.39502560  0.49733529    -0.14300
C378        C  0.60301222  0.38647730  0.51040254    -0.29500
H379        H  0.64680452  0.42864120  0.48637739     0.14700
H380        H  0.59993996  0.35167531  0.02385322     0.15300
C381        C  0.35977658  0.38161720  0.49026046    -0.14300
C382        C  0.38903099  0.38516341  0.51359436    -0.29500
H383        H  0.36082102  0.40400621  0.46836048     0.14700
H384        H  0.39427671  0.35545149  0.03751987     0.15300
C385        C  0.38748231  0.62332832  0.49176966    -0.14300
C386        C  0.35022784  0.61455420  0.47906572    -0.29500
H387        H  0.39553921  0.65477450  0.00161157     0.14700
H388        H  0.34263711  0.58003535  0.47074989     0.15300
C389        C  0.63761459  0.61551797  0.48304375    -0.14300
C390        C  0.60014349  0.62467395  0.49511727    -0.29500
H391        H  0.64496807  0.58074886  0.47510117     0.14700
H392        H  0.59345151  0.65876044  0.00356262     0.15300
N393        N  0.43437679  0.50091713  0.00623972    -0.34500
N394        N  0.49519497  0.57316591  0.00185550    -0.55000
N395        N  0.55684001  0.50471293  0.50218457    -0.34500
N396        N  0.49539752  0.43367613  0.50984538    -0.55000
C397        C  0.41179491  0.53925047  0.01164227     0.29100
C398        C  0.41037516  0.46760695  0.51320577     0.29100
C399        C  0.57917622  0.54267822  0.01337371     0.29100
C400        C  0.57854254  0.46878360  0.51479145     0.29100
C401        C  0.46181618  0.59728231  0.99209940     0.37700
C402        C  0.52804646  0.59892711  0.99318590     0.37700
C403        C  0.46236028  0.40611845  0.50652457     0.37700
C404        C  0.52857217  0.40643091  0.50584099     0.37700
C405        C  0.37668815  0.52740256  0.02912529    -0.19700
C406        C  0.37747035  0.48028217  0.03356188    -0.19700
C407        C  0.61230878  0.53244523  0.52781793    -0.19700
C408        C  0.61281129  0.48517564  0.53118162    -0.19700
C409        C  0.47353640  0.63853911  0.97709493    -0.20800
C410        C  0.51552443  0.63960639  0.97783144    -0.20800
C411        C  0.47447878  0.36111071  0.50067271    -0.20800
C412        C  0.51646889  0.36132103  0.50002433    -0.20800
C413        C  0.42114110  0.58388238  0.99909368    -0.16100
C414        C  0.42157196  0.42071255  0.51062213    -0.16100
C415        C  0.56934502  0.42159300  0.50979573    -0.16100
C416        C  0.56884239  0.58714789  0.00105455    -0.16100
H417        H  0.35273182  0.55018580  0.03758615     0.16800
H418        H  0.34955848  0.46242088  0.53722609     0.16800
H419        H  0.63650918  0.55569801  0.04124678     0.16800
H420        H  0.63592584  0.46514349  0.54409559     0.16800
H421        H  0.45398567  0.66531129  0.96692630     0.15100
H422        H  0.53452863  0.66729922  0.96830060     0.15000
H423        H  0.45510040  0.33123337  0.49734154     0.15100
H424        H  0.53566210  0.33148589  0.49605858     0.15000
H425        H  0.46003283  0.49879238  0.99096049     0.28300
H426        H  0.53207110  0.50237353  0.48594802     0.28300
N427        N  0.93370207  0.00156082  0.97536332    -0.34500
N428        N  0.99748415  0.93248728  0.96720799    -0.55000
N429        N  0.05964547  0.00363848  0.97603940    -0.34500
N430        N  0.99586652  0.07323801  0.98110465    -0.55000
C431        C  0.91093224  0.96489220  0.96587126     0.29100
C432        C  0.91029286  0.03985269  0.97148986     0.29100
C433        C  0.08222461  0.96850230  0.96368114     0.29100
C434        C  0.08162950  0.04293643  0.97185032     0.29100
C435        C  0.96480589  0.90394346  0.96871155     0.37700
C436        C  0.03106683  0.90528225  0.96857126     0.37700
C437        C  0.96219315  0.09881935  0.98758385     0.37700
C438        C  0.02859842  0.09963160  0.98885603     0.37700
C439        C  0.87237701  0.97993303  0.95645286    -0.19700
C440        C  0.87197666  0.02713014  0.95992715    -0.19700
C441        C  0.11892814  0.98555590  0.95160756    -0.19700
C442        C  0.11833930  0.03249860  0.95631537    -0.19700
C443        C  0.97771958  0.85841831  0.97076761    -0.20800
C444        C  0.01966351  0.85926223  0.97062918    -0.20800
C445        C  0.97367006  0.14176887  0.99930305    -0.20800
C446        C  0.01556388  0.14208571  0.00049465    -0.20800
C447        C  0.92351154  0.91804492  0.96628691    -0.16100
C448        C  0.92155408  0.08552857  0.98006459    -0.16100
C449        C  0.06991306  0.08759563  0.98272921    -0.16100
C450        C  0.07166837  0.92115311  0.96477363    -0.16100
H451        H  0.84710045  0.95908691  0.94788332     0.16800
H452        H  0.84612793  0.04940762  0.95484641     0.16800
H453        H  0.14351938  0.96622934  0.94033001     0.16800
H454        H  0.14229879  0.05613892  0.94885452     0.16800
H455        H  0.95889642  0.82771787  0.97176382     0.15100
H456        H  0.03943217  0.82932342  0.97124766     0.15000
H457        H  0.95413517  0.17036504  0.00586734     0.15100
H458        H  0.03416868  0.17086314  0.00835702     0.15000
H459        H  0.96206581  0.99994794  0.98688023     0.28300
H460        H  0.03289601  0.00027058  0.98983511     0.28300
O461        O  0.16863728  0.29780830  0.53781901    -0.76300
C462        C  0.18698889  0.31449460  0.93163841     0.84700
O463        O  0.20736736  0.14517998  0.99952931    -0.77500
O464        O  0.30055604  0.23465029  0.92878720    -0.78900
O465        O  0.31551572  0.33158222  0.52072034    -0.78700
O466        O  0.22668152  0.31786646  0.56316107    -0.77400
Zn467      Zn  0.18751878  0.26063847  0.99795559     1.55700
O468        O  0.31281621  0.33343018  0.96969821    -0.78800
Cd469      Cd  0.27079785  0.28473321  0.53523876     1.59700
Cd470      Cd  0.26046387  0.18453418  0.99842354     1.59600
O471        O  0.29921522  0.23734754  0.56627110    -0.78700
O472        O  0.24682535  0.25226210  0.99796517    -1.89300
Cd473      Cd  0.27063224  0.28281869  0.95742392     1.59900
O474        O  0.29312784  0.16978330  0.54039688    -0.78700
O475        O  0.22557447  0.31257943  0.92809614    -0.77400
C476        C  0.16973246  0.15640224  0.99831653     0.85200
C477        C  0.18785551  0.31811620  0.56118828     0.84800
O478        O  0.16888012  0.29664471  0.95677637    -0.76300
C479        C  0.32872067  0.34587616  0.99717684     0.85600
O480        O  0.15834086  0.19854799  0.99739443    -0.76400
C481        C  0.30580444  0.19415114  0.56458206     0.85800
C482        C  0.30693496  0.19143454  0.93155187     0.86100
O483        O  0.29383189  0.16739436  0.95611530    -0.78800
O484        O  0.68354415  0.22390275  0.95835362    -0.76300
C485        C  0.70486881  0.20942404  0.56632064     0.84700
O486        O  0.71250593  0.37425611  0.99558987    -0.77500
O487        O  0.81352154  0.29993308  0.56454010    -0.78900
O488        O  0.82806285  0.19144606  0.97470553    -0.78700
O489        O  0.74112089  0.20961591  0.93050968    -0.77400
Zn490      Zn  0.70049467  0.25813428  0.99998385     1.55700
O491        O  0.82877729  0.19800902  0.52647690    -0.78800
Cd492      Cd  0.78523875  0.24076268  0.95987815     1.59700
Cd493      Cd  0.76801586  0.33956901  0.99616622     1.59600
O494        O  0.81415690  0.28950976  0.92970538    -0.78700
O495        O  0.75909764  0.27101007  0.99931035    -1.89300
Cd496      Cd  0.78532222  0.24758535  0.53836784     1.59900
O497        O  0.80000608  0.35733183  0.95312968    -0.78700
O498        O  0.74291713  0.21692187  0.56995193    -0.77400
C499        C  0.67592321  0.36007512  0.99928733     0.85200
C500        C  0.70244532  0.20712744  0.93349003     0.84800
O501        O  0.68536146  0.22229892  0.54039010    -0.76300
C502        C  0.84239564  0.17923766  0.00307555     0.85600
O503        O  0.66744467  0.31724767  0.00199998    -0.76400
C504        C  0.81618384  0.33344126  0.93012150     0.85800
C505        C  0.81531216  0.34360604  0.56078157     0.86100
O506        O  0.79865267  0.36472475  0.53627021    -0.78800
O507        O  0.68030165  0.78935915  0.52107223    -0.76300
C508        C  0.69951284  0.79966370  0.91337157     0.84700
O509        O  0.70842815  0.63496044  0.98100246    -0.77500
O510        O  0.81148992  0.71775627  0.91333485    -0.78900
O511        O  0.82600190  0.81122367  0.50978588    -0.78700
O512        O  0.73726261  0.79572084  0.55126553    -0.77400
Zn513      Zn  0.69585871  0.75077641  0.98104506     1.55700
O514        O  0.82460491  0.81786385  0.95590923    -0.78800
Cd515      Cd  0.78040335  0.76385799  0.52144507     1.59700
Cd516      Cd  0.76353292  0.67029110  0.98055663     1.59600
O517        O  0.80586125  0.71075632  0.54954114    -0.78700
O518        O  0.75450053  0.73876616  0.98145285    -1.89300
Cd519      Cd  0.78220293  0.76767598  0.94169825     1.59900
O520        O  0.79328714  0.64686133  0.52053831    -0.78700
O521        O  0.73828948  0.79755437  0.91088737    -0.77400
C522        C  0.67167108  0.64888836  0.98354724     0.85200
C523        C  0.69917703  0.80255860  0.54703563     0.84800
O524        O  0.68020885  0.78352319  0.93844942    -0.76300
C525        C  0.83525759  0.83330442  0.98435824     0.85600
O526        O  0.66285061  0.69170417  0.98425298    -0.76400
C527        C  0.80800763  0.66720560  0.54584465     0.85800
C528        C  0.81274140  0.67379263  0.91495526     0.86100
O529        O  0.79581351  0.65084919  0.93842350    -0.78800
O530        O  0.31320475  0.77935754  0.93876038    -0.76300
C531        C  0.29733396  0.79895941  0.54583222     0.84700
O532        O  0.28071782  0.63138591  0.97940652    -0.77500
O533        O  0.18278783  0.71858298  0.54746580    -0.78900
O534        O  0.16774372  0.81732223  0.95524820    -0.78700
O535        O  0.25599136  0.79750841  0.91127911    -0.77400
Zn536      Zn  0.29569000  0.74727563  0.98126164     1.55700
O537        O  0.17396393  0.82244188  0.50839434    -0.78800
Cd538      Cd  0.21106228  0.76782798  0.94127543     1.59700
Cd539      Cd  0.22634488  0.66846341  0.97987079     1.59600
O540        O  0.18199053  0.71898207  0.91213320    -0.78700
O541        O  0.23691911  0.73679878  0.98105694    -1.89300
Cd542      Cd  0.21358850  0.76866003  0.51994144     1.59900
O543        O  0.19307692  0.65121893  0.93778806    -0.78700
O544        O  0.25908093  0.79447257  0.55042379    -0.77400
C545        C  0.31761499  0.64466629  0.98252948     0.85200
C546        C  0.29481454  0.79723386  0.91381204     0.84800
O547        O  0.31481088  0.78598351  0.51919592    -0.76300
C548        C  0.15405035  0.82926092  0.98373484     0.85600
O549        O  0.32688351  0.68727416  0.98427052    -0.76400
C550        C  0.17822550  0.67524043  0.91392116     0.85800
C551        C  0.17864943  0.67507835  0.54444826     0.86100
O552        O  0.19345379  0.65293731  0.51995094    -0.78800
N553        N  0.00394793  0.41880357  0.69486944    -0.34500
N554        N  0.93895239  0.42629975  0.74409173    -0.55000
N555        N  0.00119977  0.41438632  0.79523952    -0.34500
N556        N  0.06626412  0.41059445  0.74617526    -0.55000
C557        C  0.97202429  0.43061018  0.67514595     0.29100
C558        C  0.03822638  0.42238409  0.67620890     0.29100
C559        C  0.96825898  0.42556299  0.81379752     0.29100
C560        C  0.03447498  0.41812564  0.81501805     0.29100
C561        C  0.91613315  0.41925678  0.71650831     0.37700
C562        C  0.91471508  0.41647483  0.77052519     0.37700
C563        C  0.08896504  0.39880494  0.71941669     0.37700
C564        C  0.08750895  0.39710635  0.77350592     0.37700
C565        C  0.98625808  0.44270122  0.64368448    -0.19700
C566        C  0.02804822  0.43763587  0.64437180    -0.19700
C567        C  0.98077949  0.43748229  0.84560726    -0.19700
C568        C  0.02262137  0.43281531  0.84637572    -0.19700
C569        C  0.87673531  0.40667108  0.72547910    -0.20800
C570        C  0.87585923  0.40484881  0.75975578    -0.20800
C571        C  0.12551843  0.37921691  0.72981554    -0.20800
C572        C  0.12460127  0.37815444  0.76412313    -0.20800
C573        C  0.93044984  0.42418964  0.68342652    -0.16100
C574        C  0.07728959  0.40625409  0.68583248    -0.16100
C575        C  0.07409467  0.40271958  0.80671838    -0.16100
C576        C  0.92729523  0.41848179  0.80416726    -0.16100
H577        H  0.96823331  0.45235351  0.62208457     0.16800
H578        H  0.04843272  0.44274815  0.62341625     0.16800
H579        H  0.96157607  0.44676550  0.86645596     0.16800
H580        H  0.04194468  0.43785691  0.86793729     0.16800
H581        H  0.85144683  0.39895521  0.70906001     0.15100
H582        H  0.84976833  0.39557274  0.77497289     0.15000
H583        H  0.15012630  0.36670823  0.71432106     0.15100
H584        H  0.14836486  0.36468586  0.78027368     0.15000
H585        H  0.00175784  0.40178763  0.71764978     0.28300
H586        H  0.00024182  0.39748501  0.77256458     0.28300
N587        N  0.99322817  0.57844189  0.67886788    -0.34500
N588        N  0.92925768  0.57506678  0.72953066    -0.55000
N589        N  0.99309838  0.58324063  0.77947882    -0.34500
N590        N  0.05711560  0.58228186  0.72906251    -0.55000
C591        C  0.96018190  0.56954770  0.65975897     0.29100
C592        C  0.02673315  0.57309285  0.65956045     0.29100
C593        C  0.96022203  0.57464006  0.79895763     0.29100
C594        C  0.02668486  0.57806587  0.79876838     0.29100
C595        C  0.90593418  0.58305178  0.70225032     0.37700
C596        C  0.90592767  0.58544168  0.75626786     0.37700
C597        C  0.07973109  0.59249042  0.70177043     0.37700
C598        C  0.07959520  0.59477832  0.75577139     0.37700
C599        C  0.97286427  0.55762954  0.62798007    -0.19700
C600        C  0.01486085  0.55977441  0.62787267    -0.19700
C601        C  0.97307104  0.56316460  0.83094072    -0.19700
C602        C  0.01504849  0.56530050  0.83082111    -0.19700
C603        C  0.86708439  0.59675628  0.71176499    -0.20800
C604        C  0.86709619  0.59828446  0.74601727    -0.20800
C605        C  0.11736969  0.60999567  0.71123446    -0.20800
C606        C  0.11727552  0.61145959  0.74548467    -0.20800
C607        C  0.91920240  0.57808842  0.66893157    -0.16100
C608        C  0.06690422  0.58592808  0.66850033    -0.16100
C609        C  0.06678540  0.59038441  0.78927248    -0.16100
C610        C  0.91927985  0.58312682  0.78974801    -0.16100
H611        H  0.95376957  0.54978670  0.60673945     0.16800
H612        H  0.03434995  0.55393048  0.60653264     0.16800
H613        H  0.95409577  0.55561752  0.85240863     0.16800
H614        H  0.03469929  0.55969880  0.85219163     0.16800
H615        H  0.84156734  0.60539114  0.69570655     0.15100
H616        H  0.84162082  0.60826157  0.76155395     0.15000
H617        H  0.14212653  0.62103579  0.69515289     0.15900
H618        H  0.14196152  0.62376183  0.76100183     0.15000
H619        H  0.99257140  0.59465460  0.70175179     0.28300
H620        H  0.99236667  0.59929254  0.75625975     0.28300
N621        N  0.49721422  0.85550298  0.78099692    -0.34500
N622        N  0.56081530  0.85818688  0.73018031    -0.55000
N623        N  0.49770147  0.85630034  0.67922621    -0.34500
N624        N  0.43395258  0.85836602  0.73000777    -0.55000
C625        C  0.53045685  0.86323291  0.80020192     0.29100
C626        C  0.46380211  0.86249737  0.80014012     0.29100
C627        C  0.53108213  0.86402600  0.66008466     0.29100
C628        C  0.46445583  0.86426284  0.65997970     0.29100
C629        C  0.58441383  0.85042554  0.75730697     0.37700
C630        C  0.58463411  0.85043800  0.70329476     0.37700
C631        C  0.41028330  0.84952238  0.75695428     0.37700
C632        C  0.41051742  0.85045435  0.70288958     0.37700
C633        C  0.51800407  0.87530949  0.83201368    -0.19700
C634        C  0.47595949  0.87480799  0.83198055    -0.19700
C635        C  0.51889052  0.87701038  0.62821030    -0.19700
C636        C  0.47686203  0.87717119  0.62814486    -0.19700
C637        C  0.62369368  0.83866688  0.74760243    -0.20800
C638        C  0.62382349  0.83865515  0.71336924    -0.20800
C639        C  0.37130411  0.83711113  0.74690371    -0.20800
C640        C  0.37144733  0.83772114  0.71265143    -0.20800
C641        C  0.57148916  0.85565772  0.79064674    -0.16100
C642        C  0.42294251  0.85408385  0.79045908    -0.16100
C643        C  0.42349848  0.85597834  0.66948132    -0.16100
C644        C  0.57200373  0.85598486  0.66983078    -0.16100
H645        H  0.53721677  0.88272427  0.85326816     0.16800
H646        H  0.45656615  0.88179445  0.85319160     0.16800
H647        H  0.53825254  0.88470168  0.60700131     0.16800
H648        H  0.45762869  0.88494834  0.60686026     0.16800
H649        H  0.64959024  0.83099440  0.76350361     0.15100
H650        H  0.64983245  0.83102228  0.69771001     0.15000
H651        H  0.34546558  0.82846563  0.76259283     0.15100
H652        H  0.34574690  0.82960657  0.69676933     0.15000
H653        H  0.49735525  0.84018641  0.75776258     0.28300
H654        H  0.49756781  0.84040788  0.70249462     0.28300
N655        N  0.50644936  0.13835880  0.79916950    -0.34500
N656        N  0.57017059  0.13769403  0.74889027    -0.55000
N657        N  0.50692267  0.13759771  0.69758751    -0.34500
N658        N  0.44339899  0.13407179  0.74800520    -0.55000
C659        C  0.53980188  0.13109433  0.81845339     0.29100
C660        C  0.47324687  0.12860336  0.81800997     0.29100
C661        C  0.54060073  0.13076949  0.67874900     0.29100
C662        C  0.47395735  0.12880040  0.67829556     0.29100
C663        C  0.59325915  0.14736033  0.77589642     0.37700
C664        C  0.59355486  0.14689065  0.72187691     0.37700
C665        C  0.41947548  0.14137886  0.77488395     0.37700
C666        C  0.41967996  0.14120766  0.72085119     0.37700
C667        C  0.52766502  0.11649512  0.84996228    -0.19700
C668        C  0.48566005  0.11489850  0.84968242    -0.19700
C669        C  0.52890827  0.11739076  0.64701680    -0.19700
C670        C  0.48686396  0.11614536  0.64673273    -0.19700
C671        C  0.63182908  0.16172483  0.76603673    -0.20800
C672        C  0.63202846  0.16142049  0.73178782    -0.20800
C673        C  0.38010015  0.15232749  0.76479288    -0.20800
C674        C  0.38022309  0.15220161  0.73053271    -0.20800
C675        C  0.58046332  0.14145953  0.80927819    -0.16100
C676        C  0.43220111  0.13579951  0.80832547    -0.16100
C677        C  0.43274520  0.13588790  0.68754498    -0.16100
C678        C  0.58119108  0.14062598  0.68847548    -0.16100
H679        H  0.54703539  0.10874131  0.87116686     0.16800
H680        H  0.46641743  0.10566609  0.87065011     0.16800
H681        H  0.54860088  0.11029975  0.62600921     0.16800
H682        H  0.46794248  0.10786703  0.62547736     0.16800
H683        H  0.65718396  0.17132336  0.78184628     0.15100
H684        H  0.65759136  0.17079178  0.71600951     0.15000
H685        H  0.35396036  0.15935153  0.78046009     0.15100
H686        H  0.35420249  0.15918102  0.71460452     0.15000
H687        H  0.50615222  0.15521996  0.77620202     0.28300
H688        H  0.50640387  0.15353839  0.72062790     0.28300
C689        C  0.32190523  0.81793844  0.57200900    -0.16400
C690        C  0.34348968  0.83101458  0.59439146     0.07700
C691        C  0.36987124  0.84317673  0.62076324     0.09600
C692        C  0.39351771  0.85071282  0.64313788    -0.17200
C693        C  0.39262660  0.84825652  0.81660271    -0.16400
C694        C  0.36835955  0.84074619  0.83866631     0.07700
C695        C  0.34109615  0.82903502  0.86475772     0.09600
C696        C  0.31905023  0.81632096  0.88715605    -0.17200
C697        C  0.09509784  0.59726005  0.64169786    -0.16400
C698        C  0.11605965  0.61098074  0.61889857     0.07700
C699        C  0.13847869  0.63084142  0.59223813     0.09600
C700        C  0.15678898  0.65009340  0.56997177    -0.17200
C701        C  0.09513716  0.60239927  0.81557646    -0.16400
C702        C  0.11610952  0.61575747  0.83825363     0.07700
C703        C  0.13845622  0.63435907  0.86508632     0.09600
C704        C  0.15664850  0.65218239  0.88772586    -0.17200
C705        C  0.67625182  0.81956905  0.88653428    -0.16400
C706        C  0.65432609  0.83278612  0.86425688     0.07700
C707        C  0.62662730  0.84446344  0.83855709     0.09600
C708        C  0.60189374  0.85128962  0.81677979    -0.17200
C709        C  0.67601309  0.82352560  0.57321552    -0.16400
C710        C  0.65435321  0.83627510  0.59562164     0.07700
C711        C  0.62707049  0.84654269  0.62178190     0.09600
C712        C  0.60256735  0.85224980  0.64381346    -0.17200
C713        C  0.89093043  0.59465864  0.81624636    -0.16400
C714        C  0.87091287  0.60891078  0.83925795     0.07700
C715        C  0.85027650  0.62949261  0.86633460     0.09600
C716        C  0.83342511  0.64911739  0.88893972    -0.17200
C717        C  0.89025453  0.58716732  0.64227545    -0.16400
C718        C  0.86857659  0.59998508  0.61968128     0.07700
C719        C  0.84574961  0.61993697  0.59334203     0.09600
C720        C  0.82793865  0.64018760  0.57129367    -0.17200
C721        C  0.61143658  0.14699593  0.66243844    -0.16400
C722        C  0.63556324  0.15610904  0.64063622     0.07700
C723        C  0.66203199  0.17098636  0.61491119     0.09600
C724        C  0.68272365  0.18691143  0.59275028    -0.17200
C725        C  0.67911852  0.18591150  0.90738419    -0.16400
C726        C  0.65857399  0.17105315  0.88489880     0.07700
C727        C  0.63315344  0.15708619  0.85831010     0.09600
C728        C  0.61006483  0.14821865  0.83577189    -0.17200
C729        C  0.83712897  0.36973683  0.58532000    -0.16400
C730        C  0.85634762  0.38847821  0.60701354     0.07700
C731        C  0.88013553  0.40627867  0.63335153     0.09600
C732        C  0.90194401  0.41723872  0.65621721    -0.17200
C733        C  0.83724880  0.35687294  0.90336874    -0.16400
C734        C  0.85500459  0.37523827  0.88039819     0.07700
C735        C  0.87699620  0.39452698  0.85324386     0.09600
C736        C  0.89806531  0.40792645  0.83038955    -0.17200
C737        C  0.33039092  0.16960007  0.90592413    -0.16400
C738        C  0.35154206  0.15589567  0.88350041     0.07700
C739        C  0.37788232  0.14480011  0.85690019     0.09600
C740        C  0.40177364  0.13896190  0.83445808    -0.17200
C741        C  0.32930641  0.17273337  0.59076909    -0.16400
C742        C  0.35094314  0.15864959  0.61302068     0.07700
C743        C  0.37811449  0.14647717  0.63906921     0.09600
C744        C  0.40248101  0.13970951  0.66118467    -0.17200
C745        C  0.10101981  0.38892258  0.83387414    -0.16400
C746        C  0.12134579  0.37436816  0.85685028     0.07700
C747        C  0.14393058  0.35494454  0.88366511     0.09600
C748        C  0.16317190  0.33705159  0.90604173    -0.17200
C749        C  0.10529091  0.39316503  0.65943564    -0.16400
C750        C  0.12551863  0.37905358  0.63647820     0.07700
C751        C  0.14706810  0.35975152  0.60934267     0.09600
C752        C  0.16514380  0.34150198  0.58673795    -0.17200
C753        C  0.88935912  0.12195683  0.97799275    -0.14300
C754        C  0.87462749  0.14330312  0.00510726    -0.29500
H755        H  0.87647615  0.12962805  0.95359522     0.14700
H756        H  0.88487044  0.13446057  0.52475695     0.15300
C757        C  0.13887212  0.11906145  0.99779846    -0.14300
C758        C  0.10124107  0.12528169  0.98488105    -0.29500
H759        H  0.14727261  0.08631841  0.50509530     0.14700
H760        H  0.09275607  0.15948175  0.97592893     0.15300
C761        C  0.10481574  0.88653482  0.96006805    -0.14300
C762        C  0.12114879  0.86416778  0.98639342    -0.29500
H763        H  0.11620301  0.88053188  0.93505755     0.14700
H764        H  0.12902181  0.89684200  0.50644731     0.15300
C765        C  0.89189185  0.88153208  0.96204079    -0.14300
C766        C  0.86552691  0.87111673  0.98665943    -0.29500
H767        H  0.89238779  0.86113519  0.93946432     0.14700
H768        H  0.88507611  0.87031997  0.50978247     0.15300
C769        C  0.64279412  0.39468633  0.00007594    -0.14300
C770        C  0.60590163  0.38587888  0.01364872    -0.29500
H771        H  0.64922914  0.42853595  0.98944535     0.14700
H772        H  0.59677296  0.35247774  0.52085293     0.15300
C773        C  0.36110106  0.38129160  0.99620096    -0.14300
C774        C  0.39173877  0.38231645  0.01852995    -0.29500
H775        H  0.36101773  0.40593707  0.97558067     0.14700
H776        H  0.39035742  0.36063951  0.53424254     0.15300
C777        C  0.38812971  0.61931567  0.99545016    -0.14300
C778        C  0.35022612  0.60944420  0.98442799    -0.29500
H779        H  0.39467778  0.65818090  0.49964448     0.14700
H780        H  0.34251293  0.57435928  0.97749320     0.15300
C781        C  0.63895131  0.61387453  0.98595761    -0.14300
C782        C  0.60120488  0.62338006  0.99743183    -0.29500
H783        H  0.64667108  0.57876069  0.97909984     0.14700
H784        H  0.59270539  0.65970176  0.50241013     0.15300
loop_ 
_geom_bond_atom_site_label_1 
_geom_bond_atom_site_label_2 
_geom_bond_distance 
_geom_bond_site_symmetry_2 
_ccdc_geom_bond_type 
N1           H33   1.041       .  S
N1            C5   1.354       .  A
N1          C398   1.353       .  A
N2            C9   1.352       .  A
N2           C10   1.352       .  A
N3           H34   1.042   1_554  S
N3            C8   1.353       .  A
N3          C399   1.353       .  A
N4           C11   1.352       .  A
N4           C12   1.352       .  A
C5           C13   1.388       .  A
C5           C21   1.417       .  A
C6          N393   1.352       .  A
C6           C22   1.411       .  A
C6          C406   1.385       .  A
C7          N395   1.354       .  A
C7           C24   1.416       .  A
C7          C407   1.387       .  A
C8           C23   1.415       .  A
C8           C16   1.386       .  A
C9           C21   1.414       .  A
C9           C17   1.387       .  A
C10          C24   1.412       .  A
C10          C18   1.386       .  A
C11          C19   1.385       .  A
C11          C22   1.410       .  A
C12          C20   1.388       .  A
C12          C23   1.414       .  A
C13          C14   1.374       .  A
C13          H25   1.082       .  S
C14         C398   1.385       .  A
C14         H418   1.082       .  S
C15          C16   1.376       .  A
C15         C399   1.387       .  A
C15         H419   1.082       .  S
C16          H28   1.082       .  S
C17          C18   1.374       .  A
C17          H29   1.082       .  S
C18          H30   1.082       .  S
C19          C20   1.376       .  A
C19          H31   1.082       .  S
C20          H32   1.082   1_554  S
C21         C385   1.495       .  S
C22         C774   1.488       .  S
C23         C770   1.498       .  S
C24         C390   1.496       .  S
H26         C406   1.082       .  S
H27         C407   1.082       .  S
N35          H67   1.039       .  S
N35          C40   1.354       .  A
N35          C39   1.355   1_545  A
N36          C43   1.354       .  A
N36          C44   1.352   1_655  A
N37          H68   1.041       .  S
N37          C42   1.356       .  A
N37          C41   1.356   1_545  A
N38          C45   1.355       .  A
N38          C46   1.353   1_655  A
C39          C47   1.387       .  A
C39          C55   1.416       .  A
C40          C56   1.417       .  A
C40          C48   1.388       .  A
C41          C49   1.385       .  A
C41          C58   1.417       .  A
C42          C57   1.422       .  A
C42          C50   1.388       .  A
C43          C55   1.416       .  A
C43          C51   1.387       .  A
C44          C58   1.413       .  A
C44          C52   1.386       .  A
C45          C53   1.386       .  A
C45          C56   1.417       .  A
C46          C54   1.387       .  A
C46          C57   1.418       .  A
C47          C48   1.376   1_565  A
C47          H59   1.082       .  S
C48          H60   1.082       .  S
C49          C50   1.376   1_565  A
C49          H61   1.082       .  S
C50          H62   1.082       .  S
C51          C52   1.375   1_655  A
C51          H63   1.082       .  S
C52          H64   1.082       .  S
C53          C54   1.373   1_655  A
C53          H65   1.081       .  S
C54          H66   1.082       .  S
C55         C373   1.492       .  S
C56         C361   1.492       .  S
C57         C366   1.500       .  S
C58         C369   1.492       .  S
O69          C85   1.276       .  A
O69        Zn467   2.037   1_554  S
C70          O86   1.276       .  A
C70          O83   1.271       .  A
C70         C356   1.439       .  S
O71          C84   1.275       .  A
O71         Cd78   2.076       .  S
O72          C90   1.273       .  A
O72         Cd81   2.065       .  S
O73         C479   1.275   1_554  A
O73         Cd77   2.079       .  S
O74          C85   1.274       .  A
O74         Cd77   2.069       .  S
Zn75         O86   2.043       .  S
Zn75         O88   2.041       .  S
Zn75        O461   2.047       .  S
Zn75         O80   1.959       .  S
O76          C87   1.273       .  A
O76         Cd81   2.072       .  S
Cd77         O79   2.061       .  S
Cd77        O472   2.004   1_554  S
Cd78         O91   2.088       .  S
Cd78        O474   2.084       .  S
Cd78         O80   2.013       .  S
O79          C89   1.272       .  A
O80         Cd81   2.001       .  S
O80        Cd469   2.004       .  S
Cd81         O83   2.062       .  S
O82          C89   1.274       .  A
O82        Cd470   2.080   1_554  S
C84         C365   1.480       .  S
C84          O88   1.278       .  A
C85         C360   1.439       .  S
C87         C381   1.474       .  S
C87         O465   1.275       .  A
C89         C349   1.435       .  S
C90          O91   1.276       .  A
C90         C345   1.438       .  S
O92         C108   1.274       .  A
O92         Zn98   2.026       .  S
C93         O109   1.273       .  A
C93         O106   1.274       .  A
C93         C332   1.438       .  S
O94         C107   1.275       .  A
O94        Cd101   2.076       .  S
O95         C113   1.275       .  A
O95        Cd104   2.080       .  S
O96         C110   1.278       .  A
O96        Cd100   2.087       .  S
O97         C108   1.274       .  A
O97        Cd100   2.074       .  S
Zn98        O111   2.029       .  S
Zn98        O501   2.020       .  S
Zn98        O103   1.956       .  S
O99         C502   1.276       .  A
O99        Cd104   2.086       .  S
Cd100       O102   2.083       .  S
Cd100       O103   2.007       .  S
Cd101       O105   2.083       .  S
Cd101       O506   2.082       .  S
Cd101       O103   2.009       .  S
O102        C112   1.275       .  A
O103       Cd496   2.005       .  S
Cd104       O106   2.079       .  S
Cd104       O495   2.007   1_554  S
O105        C112   1.275       .  A
C107        C377   1.477       .  S
C107        O111   1.275       .  A
C108        C333   1.437       .  S
O109       Zn490   2.020   1_554  S
C110        C362   1.483       .  S
C110        O491   1.275       .  A
C112        C341   1.443       .  S
C113        O114   1.275       .  A
C113        C337   1.440       .  S
O114       Cd493   2.080   1_554  S
O115        C131   1.272       .  A
O115       Zn513   2.016   1_554  S
C116        O132   1.274       .  A
C116        O129   1.276       .  A
C116        C313   1.439       .  S
O117        C130   1.272       .  A
O117       Cd124   2.068       .  S
O118        C136   1.275       .  A
O118       Cd127   2.082       .  S
O119        C525   1.275   1_554  A
O119       Cd123   2.077       .  S
O120        C131   1.273       .  A
O120       Cd123   2.073       .  S
Zn121       O132   2.021       .  S
Zn121       O134   2.029       .  S
Zn121       O507   2.016       .  S
Zn121       O126   1.952       .  S
O122        C133   1.279       .  A
O122       Cd127   2.099       .  S
Cd123       O125   2.075       .  S
Cd123       O518   2.002   1_554  S
Cd124       O137   2.068       .  S
Cd124       O520   2.074       .  S
Cd124       O126   2.006       .  S
O125        C135   1.275       .  A
O126       Cd127   2.011       .  S
O126       Cd515   2.001       .  S
Cd127       O129   2.084       .  S
O128        C135   1.274       .  A
O128       Cd516   2.073   1_554  S
C130        C389   1.476       .  S
C130        O134   1.274       .  A
C131        C317   1.435       .  S
C133        C374   1.483       .  S
C133        O511   1.275       .  A
C135        C328   1.436       .  S
C136        O137   1.273       .  A
C136        C324   1.437       .  S
O138        C154   1.273       .  A
O138       Zn144   2.016       .  S
C139        O155   1.273       .  A
C139        O152   1.273       .  A
C139        C297   1.437       .  S
O140        C153   1.273       .  A
O140       Cd147   2.073       .  S
O141        C159   1.273       .  A
O141       Cd150   2.068       .  S
O142        C156   1.278       .  A
O142       Cd146   2.095       .  S
O143        C154   1.274       .  A
O143       Cd146   2.079       .  S
Zn144       O157   2.016       .  S
Zn144       O547   2.018       .  S
Zn144       O149   1.951       .  S
O145        C548   1.275   1_554  A
O145       Cd150   2.073       .  S
Cd146       O148   2.083       .  S
Cd146       O149   2.011       .  S
Cd147       O151   2.069       .  S
Cd147       O552   2.080       .  S
Cd147       O149   2.007       .  S
O148        C158   1.275       .  A
O149       Cd542   2.001       .  S
Cd150       O152   2.072       .  S
Cd150       O541   2.000   1_554  S
O151        C158   1.273       .  A
C153        C386   1.474       .  S
C153        O157   1.273       .  A
C154        C304   1.435       .  S
O155       Zn536   2.021   1_554  S
C156        C370   1.481       .  S
C156        O537   1.275       .  A
C158        C312   1.437       .  S
C159        O160   1.274       .  A
C159        C308   1.435       .  S
O160       Cd539   2.076   1_554  S
N161        H193   1.033       .  S
N161        C166   1.353       .  A
N161        C165   1.353   1_455  A
N162        C169   1.353       .  A
N162        C170   1.354       .  A
N163        H194   1.035       .  S
N163        C168   1.353       .  A
N163        C167   1.353   1_455  A
N164        C171   1.353       .  A
N164        C172   1.353       .  A
C165        C173   1.388       .  A
C165        C181   1.415       .  A
C166        C182   1.414       .  A
C166        C174   1.387       .  A
C167        C175   1.386       .  A
C167        C184   1.413       .  A
C168        C183   1.413       .  A
C168        C176   1.387       .  A
C169        C181   1.416       .  A
C169        C177   1.387       .  A
C170        C184   1.414       .  A
C170        C178   1.386       .  A
C171        C179   1.387       .  A
C171        C182   1.414       .  A
C172        C180   1.386       .  A
C172        C183   1.414       .  A
C173        C174   1.376   1_655  A
C173        H185   1.082       .  S
C174        H186   1.082       .  S
C175        C176   1.376   1_655  A
C175        H187   1.082       .  S
C176        H188   1.082       .  S
C177        C178   1.375       .  A
C177        H189   1.082       .  S
C178        H190   1.082       .  S
C179        C180   1.375       .  A
C179        H191   1.082       .  S
C180        H192   1.082       .  S
C181        C340   1.453       .  S
C182        C357   1.453       .  S
C183        C353   1.453       .  S
C184        C344   1.456       .  S
N195        H227   1.035       .  S
N195        C200   1.352   1_655  A
N195        C199   1.352       .  A
N196        C203   1.352       .  A
N196        C204   1.352       .  A
N197        H228   1.036       .  S
N197        C202   1.351   1_655  A
N197        C201   1.351       .  A
N198        C205   1.352       .  A
N198        C206   1.352       .  A
C199        C207   1.388       .  A
C199        C215   1.414       .  A
C200        C216   1.414       .  A
C200        C208   1.387       .  A
C201        C209   1.387       .  A
C201        C218   1.412       .  A
C202        C217   1.412       .  A
C202        C210   1.387       .  A
C203        C215   1.414       .  A
C203        C211   1.387       .  A
C204        C218   1.413       .  A
C204        C212   1.386       .  A
C205        C213   1.387       .  A
C205        C216   1.413       .  A
C206        C214   1.386       .  A
C206        C217   1.412       .  A
C207        C208   1.375   1_655  A
C207        H219   1.082       .  S
C208        H220   1.082       .  S
C209        C210   1.376   1_655  A
C209        H221   1.082       .  S
C210        H222   1.082       .  S
C211        C212   1.374       .  A
C211        H223   1.082       .  S
C212        H224   1.082       .  S
C213        C214   1.373       .  A
C213        H225   1.082       .  S
C214        H226   1.082       .  S
C215        C325   1.450       .  S
C216        C305   1.450       .  S
C217        C309   1.451       .  S
C218        C321   1.451       .  S
N229        H261   1.034       .  S
N229        C234   1.353       .  A
N229        C233   1.354       .  A
N230        C237   1.352       .  A
N230        C238   1.352       .  A
N231        H262   1.035       .  S
N231        C236   1.353       .  A
N231        C235   1.353       .  A
N232        C239   1.352       .  A
N232        C240   1.353       .  A
C233        C241   1.387       .  A
C233        C249   1.416       .  A
C234        C250   1.416       .  A
C234        C242   1.388       .  A
C235        C243   1.388       .  A
C235        C252   1.415       .  A
C236        C251   1.413       .  A
C236        C244   1.387       .  A
C237        C249   1.414       .  A
C237        C245   1.387       .  A
C238        C252   1.413       .  A
C238        C246   1.387       .  A
C239        C247   1.387       .  A
C239        C250   1.414       .  A
C240        C248   1.386       .  A
C240        C251   1.413       .  A
C241        C242   1.376       .  A
C241        H253   1.082       .  S
C242        H254   1.082       .  S
C243        C244   1.376       .  A
C243        H255   1.082       .  S
C244        H256   1.082       .  S
C245        C246   1.374       .  A
C245        H257   1.082       .  S
C246        H258   1.082       .  S
C247        C248   1.373       .  A
C247        H259   1.082       .  S
C248        H260   1.082       .  S
C249        C316   1.454       .  S
C250        C301   1.450       .  S
C251        C300   1.452       .  S
C252        C320   1.451       .  S
N263        H295   1.035       .  S
N263        C268   1.354       .  A
N263        C267   1.353       .  A
N264        C271   1.352       .  A
N264        C272   1.353       .  A
N265        H296   1.035       .  S
N265        C270   1.353       .  A
N265        C269   1.353       .  A
N266        C273   1.352       .  A
N266        C274   1.351       .  A
C267        C275   1.387       .  A
C267        C283   1.414       .  A
C268        C284   1.415       .  A
C268        C276   1.387       .  A
C269        C277   1.387       .  A
C269        C286   1.414       .  A
C270        C285   1.414       .  A
C270        C278   1.388       .  A
C271        C283   1.414       .  A
C271        C279   1.387       .  A
C272        C286   1.414       .  A
C272        C280   1.387       .  A
C273        C281   1.386       .  A
C273        C284   1.413       .  A
C274        C282   1.387       .  A
C274        C285   1.413       .  A
C275        C276   1.376       .  A
C275        H287   1.082       .  S
C276        H288   1.082       .  S
C277        C278   1.376       .  A
C277        H289   1.082       .  S
C278        H290   1.082       .  S
C279        C280   1.374       .  A
C279        H291   1.082       .  S
C280        H292   1.082       .  S
C281        C282   1.374       .  A
C281        H293   1.082       .  S
C282        H294   1.082       .  S
C283        C336   1.452       .  S
C284        C348   1.453       .  S
C285        C352   1.450       .  S
C286        C329   1.453       .  S
C297        C298   1.207       .  T
C298        C299   1.414       .  S
C299        C300   1.207       .  T
C301        C302   1.206       .  T
C302        C303   1.411       .  S
C303        C304   1.206       .  T
C305        C306   1.206       .  T
C306        C307   1.411       .  S
C307        C308   1.206       .  T
C309        C310   1.207       .  T
C310        C311   1.413       .  S
C311        C312   1.207       .  T
C313        C314   1.208       .  T
C314        C315   1.416       .  S
C315        C316   1.208       .  T
C317        C318   1.206       .  T
C318        C319   1.412       .  S
C319        C320   1.206       .  T
C321        C322   1.207       .  T
C322        C323   1.413       .  S
C323        C324   1.207       .  T
C325        C326   1.206       .  T
C326        C327   1.412       .  S
C327        C328   1.206       .  T
C329        C330   1.207       .  T
C330        C331   1.414       .  S
C331        C332   1.207       .  T
C333        C334   1.207       .  T
C334        C335   1.414       .  S
C335        C336   1.207       .  T
C337        C338   1.208       .  T
C338        C339   1.415       .  S
C339        C340   1.208       .  T
C341        C342   1.210       .  T
C342        C343   1.419       .  S
C343        C344   1.210       .  T
C345        C346   1.208       .  T
C346        C347   1.415       .  S
C347        C348   1.208       .  T
C349        C350   1.205       .  T
C350        C351   1.411       .  S
C351        C352   1.206       .  T
C353        C354   1.208       .  T
C354        C355   1.416       .  S
C355        C356   1.208       .  T
C357        C358   1.208       .  T
C358        C359   1.415       .  S
C359        C360   1.208       .  T
C361        C362   1.345       .  D
C361        H363   1.086       .  S
C362        H756   1.087       .  S
H364        C754   1.087       .  S
C365        C366   1.347       .  D
C365        H759   1.086       .  S
C366        H368   1.087       .  S
H367        C757   1.086   1_554  S
C369        C370   1.344       .  D
C369        H371   1.086       .  S
C370        H764   1.087       .  S
H372        C762   1.087   1_554  S
C373        C374   1.345       .  D
C373        H375   1.086       .  S
C374        H768   1.087       .  S
H376        C766   1.087   1_554  S
C377        C378   1.349       .  D
C377        H379   1.086       .  S
C378        C415   1.500       .  S
C378        H772   1.086       .  S
H380        C770   1.086       .  S
C381        C382   1.343       .  D
C381        H383   1.087       .  S
C382        C414   1.486       .  S
C382        H776   1.086       .  S
H384        C774   1.087       .  S
C385        C386   1.347       .  D
C385        H779   1.087       .  S
C386        H388   1.086       .  S
H387        C777   1.086   1_554  S
C389        C390   1.346       .  D
C389        H391   1.086       .  S
C390        H784   1.086       .  S
H392        C782   1.086   1_554  S
N393        H425   1.042   1_554  S
N393        C397   1.353       .  A
N394        C401   1.352   1_554  A
N394        C402   1.353   1_554  A
N395        H426   1.042       .  S
N395        C400   1.354       .  A
N396        C403   1.352       .  A
N396        C404   1.353       .  A
C397        C405   1.388       .  A
C397        C413   1.416   1_554  A
C398        C414   1.412       .  A
C399        C416   1.416       .  A
C400        C415   1.416       .  A
C400        C408   1.386       .  A
C401        C413   1.414       .  A
C401        C409   1.387       .  A
C402        C416   1.413   1_556  A
C402        C410   1.386       .  A
C403        C411   1.385       .  A
C403        C414   1.411       .  A
C404        C412   1.387       .  A
C404        C415   1.415       .  A
C405        C406   1.375       .  A
C405        H417   1.082       .  S
C407        C408   1.375       .  A
C408        H420   1.082       .  S
C409        C410   1.375       .  A
C409        H421   1.082       .  S
C410        H422   1.082       .  S
C411        C412   1.375       .  A
C411        H423   1.082       .  S
C412        H424   1.082       .  S
C413        C777   1.496       .  S
C416        C782   1.497   1_554  S
N427        H459   1.038   1_545  S
N427        C432   1.356       .  A
N427        C431   1.355   1_545  A
N428        C435   1.353       .  A
N428        C436   1.353   1_655  A
N429        H460   1.040       .  S
N429        C434   1.356       .  A
N429        C433   1.356   1_545  A
N430        C437   1.355       .  A
N430        C438   1.354   1_655  A
C431        C439   1.386       .  A
C431        C447   1.418       .  A
C432        C448   1.419       .  A
C432        C440   1.388       .  A
C433        C441   1.385       .  A
C433        C450   1.415       .  A
C434        C449   1.422       .  A
C434        C442   1.389       .  A
C435        C447   1.415       .  A
C435        C443   1.386       .  A
C436        C450   1.414       .  A
C436        C444   1.386       .  A
C437        C445   1.386       .  A
C437        C448   1.418       .  A
C438        C446   1.387   1_556  A
C438        C449   1.419       .  A
C439        C440   1.376   1_565  A
C439        H451   1.082       .  S
C440        H452   1.082       .  S
C441        C442   1.375   1_565  A
C441        H453   1.082       .  S
C442        H454   1.082       .  S
C443        C444   1.373   1_655  A
C443        H455   1.082       .  S
C444        H456   1.082       .  S
C445        C446   1.372   1_656  A
C445        H457   1.081   1_556  S
C446        H458   1.082       .  S
C447        C765   1.491       .  S
C448        C753   1.493       .  S
C449        C758   1.501       .  S
C450        C761   1.491       .  S
O461        C477   1.277       .  A
C462        O478   1.275       .  A
C462        O475   1.272       .  A
C462        C748   1.440       .  S
O463        C476   1.275       .  A
O463       Cd470   2.079       .  S
O464        C482   1.273       .  A
O464       Cd473   2.064       .  S
O465       Cd469   2.076       .  S
O466        C477   1.273       .  A
O466       Cd469   2.070       .  S
Zn467       O478   2.038       .  S
Zn467       O480   2.037       .  S
Zn467       O472   1.957       .  S
O468        C479   1.274       .  A
O468       Cd473   2.077       .  S
Cd469       O471   2.065       .  S
Cd470       O483   2.083       .  S
Cd470       O472   2.012       .  S
O471        C481   1.272       .  A
O472       Cd473   2.002       .  S
Cd473       O475   2.069       .  S
O474        C481   1.275       .  A
C476        C757   1.480       .  S
C476        O480   1.277       .  A
C477        C752   1.441       .  S
C479        C773   1.475       .  S
C481        C741   1.437       .  S
C482        O483   1.275       .  A
C482        C737   1.435       .  S
O484        C500   1.274       .  A
O484       Zn490   2.028       .  S
C485        O501   1.273       .  A
C485        O498   1.273       .  A
C485        C724   1.436       .  S
O486        C499   1.274       .  A
O486       Cd493   2.076       .  S
O487        C505   1.274       .  A
O487       Cd496   2.070       .  S
O488        C502   1.277   1_556  A
O488       Cd492   2.084       .  S
O489        C500   1.274       .  A
O489       Cd492   2.075       .  S
Zn490       O503   2.028   1_556  S
Zn490       O495   1.955       .  S
O491       Cd496   2.080       .  S
Cd492       O494   2.079       .  S
Cd492       O495   2.008       .  S
Cd493       O497   2.080       .  S
Cd493       O495   2.010       .  S
O494        C504   1.275       .  A
Cd496       O498   2.074       .  S
O497        C504   1.274       .  A
C499        C769   1.477   1_556  S
C499        O503   1.275   1_556  A
C500        C725   1.439       .  S
C502        C754   1.484       .  S
C504        C733   1.440       .  S
C505        O506   1.275       .  A
C505        C729   1.437       .  S
O507        C523   1.273       .  A
C508        O524   1.273       .  A
C508        O521   1.275       .  A
C508        C705   1.434       .  S
O509        C522   1.274       .  A
O509       Cd516   2.074       .  S
O510        C528   1.275       .  A
O510       Cd519   2.083       .  S
O511       Cd515   2.078       .  S
O512        C523   1.273       .  A
O512       Cd515   2.074       .  S
Zn513       O524   2.012       .  S
Zn513       O526   2.027       .  S
Zn513       O518   1.951       .  S
O514        C525   1.278       .  A
O514       Cd519   2.093       .  S
Cd515       O517   2.072       .  S
Cd516       O529   2.076       .  S
Cd516       O518   2.006       .  S
O517        C527   1.274       .  A
O518       Cd519   2.010       .  S
Cd519       O521   2.078       .  S
O520        C527   1.273       .  A
C522        C781   1.478       .  S
C522        O526   1.274       .  A
C523        C709   1.435       .  S
C525        C766   1.481       .  S
C527        C720   1.436       .  S
C528        O529   1.274       .  A
C528        C716   1.440       .  S
O530        C546   1.273       .  A
O530       Zn536   2.017       .  S
C531        O547   1.272       .  A
C531        O544   1.272       .  A
C531        C689   1.436       .  S
O532        C545   1.274       .  A
O532       Cd539   2.079       .  S
O533        C551   1.274       .  A
O533       Cd542   2.076       .  S
O534        C548   1.278       .  A
O534       Cd538   2.097       .  S
O535        C546   1.275       .  A
O535       Cd538   2.081       .  S
Zn536       O549   2.018       .  S
Zn536       O541   1.948       .  S
O537       Cd542   2.076       .  S
Cd538       O540   2.075       .  S
Cd538       O541   2.010       .  S
Cd539       O543   2.074       .  S
Cd539       O541   2.011       .  S
O540        C550   1.274       .  A
Cd542       O544   2.071       .  S
O543        C550   1.274       .  A
C545        C778   1.478       .  S
C545        O549   1.274       .  A
C546        C696   1.438       .  S
C548        C762   1.482       .  S
C550        C704   1.436       .  S
C551        O552   1.275       .  A
C551        C700   1.439       .  S
N553        H585   1.036       .  S
N553        C558   1.353       .  A
N553        C557   1.352   1_455  A
N554        C561   1.352       .  A
N554        C562   1.352       .  A
N555        H586   1.038       .  S
N555        C560   1.352       .  A
N555        C559   1.352   1_455  A
N556        C563   1.352       .  A
N556        C564   1.352       .  A
C557        C565   1.387       .  A
C557        C573   1.413       .  A
C558        C574   1.414       .  A
C558        C566   1.387       .  A
C559        C567   1.387       .  A
C559        C576   1.411       .  A
C560        C575   1.413       .  A
C560        C568   1.387       .  A
C561        C573   1.413       .  A
C561        C569   1.387       .  A
C562        C576   1.412       .  A
C562        C570   1.386       .  A
C563        C571   1.387       .  A
C563        C574   1.414       .  A
C564        C572   1.386       .  A
C564        C575   1.414       .  A
C565        C566   1.376   1_655  A
C565        H577   1.082       .  S
C566        H578   1.082       .  S
C567        C568   1.377   1_655  A
C567        H579   1.082       .  S
C568        H580   1.082       .  S
C569        C570   1.376       .  A
C569        H581   1.082       .  S
C570        H582   1.082       .  S
C571        C572   1.376       .  A
C571        H583   1.082       .  S
C572        H584   1.082       .  S
C573        C732   1.451       .  S
C574        C749   1.454       .  S
C575        C745   1.454       .  S
C576        C736   1.452       .  S
N587        H619   1.035       .  S
N587        C592   1.353   1_655  A
N587        C591   1.352       .  A
N588        C595   1.352       .  A
N588        C596   1.353       .  A
N589        H620   1.037       .  S
N589        C594   1.352   1_655  A
N589        C593   1.352       .  A
N590        C597   1.352       .  A
N590        C598   1.352       .  A
C591        C599   1.388       .  A
C591        C607   1.414       .  A
C592        C608   1.414       .  A
C592        C600   1.387       .  A
C593        C601   1.387       .  A
C593        C610   1.411       .  A
C594        C609   1.412       .  A
C594        C602   1.388       .  A
C595        C607   1.414       .  A
C595        C603   1.387       .  A
C596        C610   1.413       .  A
C596        C604   1.386       .  A
C597        C605   1.387       .  A
C597        C608   1.413       .  A
C598        C606   1.386       .  A
C598        C609   1.412       .  A
C599        C600   1.376   1_655  A
C599        H611   1.082       .  S
C600        H612   1.082       .  S
C601        C602   1.376   1_655  A
C601        H613   1.082       .  S
C602        H614   1.082       .  S
C603        C604   1.375       .  A
C603        H615   1.082       .  S
C604        H616   1.082       .  S
C605        C606   1.375       .  A
C605        H617   1.082       .  S
C606        H618   1.082       .  S
C607        C717   1.450       .  S
C608        C697   1.452       .  S
C609        C701   1.450       .  S
C610        C713   1.453       .  S
N621        H653   1.036       .  S
N621        C626   1.353       .  A
N621        C625   1.353       .  A
N622        C629   1.351       .  A
N622        C630   1.352       .  A
N623        H654   1.036       .  S
N623        C628   1.353       .  A
N623        C627   1.353       .  A
N624        C631   1.352       .  A
N624        C632   1.352       .  A
C625        C633   1.388       .  A
C625        C641   1.415       .  A
C626        C642   1.415       .  A
C626        C634   1.387       .  A
C627        C635   1.387       .  A
C627        C644   1.414       .  A
C628        C643   1.414       .  A
C628        C636   1.388       .  A
C629        C641   1.412       .  A
C629        C637   1.387       .  A
C630        C644   1.412       .  A
C630        C638   1.387       .  A
C631        C639   1.387       .  A
C631        C642   1.414       .  A
C632        C640   1.387       .  A
C632        C643   1.413       .  A
C633        C634   1.376       .  A
C633        H645   1.082       .  S
C634        H646   1.082       .  S
C635        C636   1.376       .  A
C635        H647   1.082       .  S
C636        H648   1.082       .  S
C637        C638   1.373       .  A
C637        H649   1.082       .  S
C638        H650   1.082       .  S
C639        C640   1.374       .  A
C639        H651   1.082       .  S
C640        H652   1.082       .  S
C641        C708   1.450       .  S
C642        C693   1.453       .  S
C643        C692   1.451       .  S
C644        C712   1.451       .  S
N655        H687   1.038       .  S
N655        C660   1.352       .  A
N655        C659   1.353       .  A
N656        C663   1.352       .  A
N656        C664   1.351       .  A
N657        H688   1.037       .  S
N657        C662   1.353       .  A
N657        C661   1.352       .  A
N658        C665   1.351       .  A
N658        C666   1.351       .  A
C659        C667   1.387       .  A
C659        C675   1.413       .  A
C660        C676   1.413       .  A
C660        C668   1.388       .  A
C661        C669   1.388       .  A
C661        C678   1.415       .  A
C662        C677   1.415       .  A
C662        C670   1.387       .  A
C663        C675   1.412       .  A
C663        C671   1.386       .  A
C664        C678   1.413       .  A
C664        C672   1.387       .  A
C665        C673   1.387       .  A
C665        C676   1.412       .  A
C666        C674   1.387       .  A
C666        C677   1.413       .  A
C667        C668   1.376       .  A
C667        H679   1.082       .  S
C668        H680   1.082       .  S
C669        C670   1.377       .  A
C669        H681   1.082       .  S
C670        H682   1.082       .  S
C671        C672   1.374       .  A
C671        H683   1.082       .  S
C672        H684   1.082       .  S
C673        C674   1.374       .  A
C673        H685   1.082       .  S
C674        H686   1.082       .  S
C675        C728   1.453       .  S
C676        C740   1.450       .  S
C677        C744   1.452       .  S
C678        C721   1.450       .  S
C689        C690   1.206       .  T
C690        C691   1.413       .  S
C691        C692   1.206       .  T
C693        C694   1.208       .  T
C694        C695   1.414       .  S
C695        C696   1.207       .  T
C697        C698   1.208       .  T
C698        C699   1.415       .  S
C699        C700   1.208       .  T
C701        C702   1.206       .  T
C702        C703   1.412       .  S
C703        C704   1.206       .  T
C705        C706   1.205       .  T
C706        C707   1.411       .  S
C707        C708   1.206       .  T
C709        C710   1.206       .  T
C710        C711   1.412       .  S
C711        C712   1.206       .  T
C713        C714   1.208       .  T
C714        C715   1.416       .  S
C715        C716   1.208       .  T
C717        C718   1.206       .  T
C718        C719   1.413       .  S
C719        C720   1.206       .  T
C721        C722   1.206       .  T
C722        C723   1.412       .  S
C723        C724   1.206       .  T
C725        C726   1.208       .  T
C726        C727   1.415       .  S
C727        C728   1.208       .  T
C729        C730   1.207       .  T
C730        C731   1.414       .  S
C731        C732   1.207       .  T
C733        C734   1.208       .  T
C734        C735   1.416       .  S
C735        C736   1.208       .  T
C737        C738   1.206       .  T
C738        C739   1.412       .  S
C739        C740   1.206       .  T
C741        C742   1.207       .  T
C742        C743   1.414       .  S
C743        C744   1.207       .  T
C745        C746   1.209       .  T
C746        C747   1.417       .  S
C747        C748   1.209       .  T
C749        C750   1.209       .  T
C750        C751   1.417       .  S
C751        C752   1.209       .  T
C753        C754   1.346   1_556  D
C753        H755   1.086       .  S
C757        C758   1.348       .  D
C758        H760   1.086       .  S
C761        C762   1.344       .  D
C761        H763   1.086       .  S
C765        C766   1.344       .  D
C765        H767   1.086       .  S
C769        C770   1.348       .  D
C769        H771   1.086   1_554  S
C773        C774   1.345   1_556  D
C773        H775   1.087       .  S
C777        C778   1.349       .  D
C778        H780   1.086       .  S
C781        C782   1.348       .  D
C781        H783   1.086       .  S
