geometry optimzed in LAMMPS
_audit_creation_date              2020-11-30 
_audit_creation_method            'lammps2cif' 
_symmetry_space_group_name_H-M    'P1' 
_symmetry_Int_Tables_number       1 
_symmetry_cell_setting            triclinic 
loop_ 
_symmetry_equiv_pos_as_xyz 
  x,y,z 
_cell_length_a                    49.65737721 
_cell_length_b                    49.84161433485707 
_cell_length_c                    48.241850484086164 
_cell_angle_alpha                 89.45467871075112 
_cell_angle_beta                  90.33570720201418 
_cell_angle_gamma                 90.07168048807748 
loop_ 
_atom_site_label 
_atom_site_type_symbol 
_atom_site_fract_x 
_atom_site_fract_y 
_atom_site_fract_z 
_atom_site_charge 
C1          C  0.34028575  0.33955631  0.16106126    -0.01900
C2          C  0.32847823  0.20630333  0.29368887    -0.01900
C3          C  0.18569434  0.20188448  0.17227967    -0.01900
C4          C  0.21279154  0.35960042  0.29386975    -0.01900
C5          C  0.32999519  0.21427547  0.64278878    -0.01900
C6          C  0.20654661  0.20685753  0.80335793    -0.01900
C7          C  0.20288434  0.34045637  0.65175505    -0.01900
C8          C  0.33718561  0.34290399  0.79304618    -0.01900
N9          N  0.46328109  0.49295061  0.00655279    -0.05500
N10         N  0.44483975  0.47414984  0.00992272    -0.57600
N11         N  0.47992838  0.55316861  0.03048562    -0.05200
N12         N  0.47354485  0.57059740  0.04988508    -0.59700
N13         N  0.46203587  0.55422106  0.01030290    -0.04800
N14         N  0.44341610  0.57232145  0.01543963    -0.57600
N15         N  0.48147889  0.49152483  0.02647052    -0.04500
N16         N  0.47564691  0.47166577  0.04382701    -0.60100
C17         C  0.45279573  0.46088632  0.03311861     0.96700
C18         C  0.45073293  0.58257982  0.04018324     0.96500
N19         N  0.56314660  0.55581269  0.01266242    -0.05700
N20         N  0.58089634  0.57452330  0.01909066    -0.58200
N21         N  0.54620901  0.49282985  0.02855727    -0.03800
N22         N  0.55343035  0.47465080  0.04737922    -0.59400
N23         N  0.56465297  0.49445686  0.00915021    -0.05700
N24         N  0.58441346  0.47744005  0.01441565    -0.58500
N25         N  0.54431439  0.55421061  0.03174580    -0.03400
N26         N  0.54901971  0.57167409  0.05163101    -0.59500
Mn27       Mn  0.51294198  0.52282756  0.03018510     1.18400
C28         C  0.57164222  0.58441520  0.04321072     0.98800
C29         C  0.57732021  0.46483495  0.03824587     0.99400
N30         N  0.46272338  0.55911447  0.94527415    -0.05700
N31         N  0.44295703  0.57614660  0.93992685    -0.62000
N32         N  0.48284946  0.49962132  0.92233471    -0.04500
N33         N  0.47818309  0.48205181  0.90252990    -0.62700
N34         N  0.46419766  0.49783073  0.94148166    -0.05200
N35         N  0.44647766  0.47912419  0.93514144    -0.62300
N36         N  0.48156128  0.56110497  0.92626454    -0.04100
N37         N  0.47478442  0.57946989  0.90750525    -0.63000
Mn38       Mn  0.46258680  0.52602104  0.97593868     1.10700
C39         C  0.45093167  0.58906400  0.91663047     1.00000
C40         C  0.45548541  0.46928278  0.91089678     1.00100
N41         N  0.56472218  0.49849911  0.94319814    -0.05200
N42         N  0.58258418  0.47984905  0.93695806    -0.60600
N43         N  0.54631872  0.56168287  0.92775362    -0.04600
N44         N  0.55338959  0.57974739  0.90893920    -0.57400
N45         N  0.56491498  0.55997997  0.94724432    -0.05900
N46         N  0.58489212  0.57678559  0.94198297    -0.60200
N47         N  0.54620573  0.50022951  0.92362971    -0.04900
N48         N  0.55104202  0.48282831  0.90382366    -0.57400
Mn49       Mn  0.56491865  0.52713866  0.97809736     1.20200
Mn50       Mn  0.51427002  0.53090376  0.92435372     1.10100
Cl51       Cl  0.51371161  0.52676504  0.97717872    -0.85300
C52         C  0.57373020  0.47014495  0.91234169     0.97000
C53         C  0.57742319  0.58921670  0.91811767     0.96800
C54         C  0.34086761  0.71404349  0.15976179    -0.01900
C55         C  0.19314452  0.84354149  0.15127093    -0.01900
C56         C  0.18392961  0.72521277  0.28425675    -0.01900
C57         C  0.33868106  0.85042060  0.28596405    -0.01900
N58         N  0.46866436  0.05919575  0.43977002    -0.05500
N59         N  0.44878758  0.07544896  0.43241900    -0.57600
N60         N  0.48892178  0.99835380  0.42220522    -0.05200
N61         N  0.48242318  0.98147271  0.40222293    -0.59700
N62         N  0.47044812  0.99792322  0.44162388    -0.04800
N63         N  0.45137128  0.98056815  0.43536258    -0.57600
N64         N  0.48769351  0.05959835  0.42083862    -0.04500
N65         N  0.48112307  0.07624364  0.40034796    -0.60100
C66         C  0.45698569  0.08625163  0.40804896     0.96700
C67         C  0.45890838  0.97029616  0.41073655     0.96500
N68         N  0.57133441  0.00022205  0.44505244    -0.05700
N69         N  0.58943440  0.98113882  0.44192085    -0.58200
N70         N  0.55188020  0.06107248  0.42285804    -0.03800
N71         N  0.55745978  0.07884676  0.40322886    -0.59400
N72         N  0.57006335  0.06214628  0.44275122    -0.05700
N73         N  0.58821389  0.08078487  0.43697680    -0.58500
N74         N  0.55304498  0.99912947  0.42520984    -0.03400
N75         N  0.55841496  0.97918306  0.40820343    -0.59500
Mn76       Mn  0.52057243  0.02954719  0.42212155     1.18400
C77         C  0.58110293  0.96803540  0.41898201     0.98800
C78         C  0.58013746  0.09123605  0.41224233     0.99400
N79         N  0.46947914  0.99850778  0.50750471    -0.05700
N80         N  0.45039482  0.98087062  0.51328143    -0.62000
N81         N  0.48659121  0.06073027  0.52569784    -0.04500
N82         N  0.48091660  0.07978963  0.54354634    -0.62700
N83         N  0.46819979  0.06006208  0.50599047    -0.05200
N84         N  0.44962372  0.07848014  0.51033756    -0.62300
N85         N  0.48773316  0.99881770  0.52745677    -0.04100
N86         N  0.48125384  0.98127215  0.54714784    -0.63000
Mn87       Mn  0.46874015  0.02892327  0.47380939     1.10700
C88         C  0.45811676  0.96991280  0.53780545     1.00000
C89         C  0.45779956  0.09092685  0.53380833     1.00100
N90         N  0.56908897  0.06303182  0.50853978    -0.05200
N91         N  0.58768086  0.08107628  0.51427487    -0.60600
N92         N  0.55273142  0.00113958  0.52972875    -0.04600
N93         N  0.55959066  0.98436040  0.55001159    -0.57400
N94         N  0.57165165  0.00180953  0.51072948    -0.05900
N95         N  0.59158811  0.98548803  0.51771428    -0.60200
N96         N  0.55049308  0.06261332  0.52788383    -0.04900
N97         N  0.55619843  0.08047587  0.54720837    -0.57400
Mn98       Mn  0.57106666  0.03188606  0.47664566     1.20200
Mn99       Mn  0.51927128  0.03069978  0.52838733     1.10100
Cl100      Cl  0.51989610  0.03023548  0.47527583    -0.85300
C101        C  0.57938986  0.09197890  0.53830232     0.97000
C102        C  0.58386593  0.97454529  0.54222289     0.96800
C103        C  0.68957009  0.33965792  0.79821935    -0.01900
C104        C  0.82500238  0.36216289  0.65452404    -0.01900
C105        C  0.70432926  0.22657304  0.63673973    -0.01900
C106        C  0.82777429  0.20549647  0.78490423    -0.01900
C107        C  0.33861082  0.70935092  0.78590504    -0.01900
C108        C  0.33045706  0.86155714  0.66480813    -0.01900
C109        C  0.20386354  0.70639092  0.66681674    -0.01900
C110        C  0.20736438  0.85478763  0.80179464    -0.01900
C111        C  0.69477369  0.84222802  0.29727566    -0.01900
C112        C  0.83483700  0.70028130  0.28174702    -0.01900
C113        C  0.69846893  0.69979050  0.16178482    -0.01900
C114        C  0.82073702  0.85706221  0.16076392    -0.01900
C115        C  0.69573262  0.69952902  0.78310532    -0.01900
C116        C  0.81246543  0.68077911  0.64479805    -0.01900
C117        C  0.70315975  0.83143694  0.64075510    -0.01900
C118        C  0.84363267  0.83648819  0.78560126    -0.01900
N119        N  0.03723248  0.06351543  0.02768413    -0.05500
N120        N  0.05378503  0.07058767  0.04787835    -0.57600
N121        N  0.97637613  0.08005197  0.00445822    -0.05200
N122        N  0.95927564  0.09963110  0.00974464    -0.59700
N123        N  0.97581734  0.06184502  0.02440642    -0.04800
N124        N  0.95837207  0.06879726  0.04364805    -0.57600
N125        N  0.03789258  0.08146458  0.00755778    -0.04500
N126        N  0.05500982  0.10087532  0.01364210    -0.60100
C127        C  0.06504031  0.09389193  0.03886458     0.96700
C128        C  0.94779208  0.09209482  0.03394535     0.96500
N129        N  0.98074705  0.05942476  0.91970186    -0.05700
N130        N  0.96405724  0.06523009  0.89904191    -0.58200
N131        N  0.04074686  0.07997147  0.94195752    -0.03800
N132        N  0.05799752  0.09946818  0.93654540    -0.59400
N133        N  0.04205481  0.06133577  0.92286431    -0.05700
N134        N  0.06011129  0.06808706  0.90403696    -0.58500
N135        N  0.97956341  0.07816500  0.93874704    -0.03400
N136        N  0.96212629  0.09690683  0.93145503    -0.59500
Mn137      Mn  0.00863616  0.08027757  0.97313447     1.18400
C138        C  0.95246316  0.08859093  0.90676293     0.98800
C139        C  0.07011196  0.09189750  0.91283170     0.99400
N140        N  0.97719873  0.99760571  0.02576441    -0.05700
N141        N  0.95821909  0.99162427  0.04394217    -0.62000
N142        N  0.04037983  0.98045256  0.01077230    -0.04500
N143        N  0.05839145  0.96225410  0.01824080    -0.62700
N144        N  0.03910113  0.99952390  0.02943616    -0.05200
N145        N  0.05638367  0.99470245  0.04986014    -0.62300
N146        N  0.97879317  0.97868539  0.00697033    -0.04100
N147        N  0.96100633  0.95956132  0.01203072    -0.63000
Mn148      Mn  0.00727131  0.03055159  0.02740632     1.10700
C149        C  0.94815044  0.96789589  0.03504672     1.00000
C150        C  0.06847645  0.97155412  0.04242703     1.00100
N151        N  0.04446101  0.99675114  0.92479039    -0.05200
N152        N  0.06355530  0.99055202  0.90685190    -0.60600
N153        N  0.98223216  0.97683062  0.94127862    -0.04600
N154        N  0.96542126  0.95716779  0.93524678    -0.57400
N155        N  0.98233315  0.99490343  0.92123733    -0.05900
N156        N  0.96538477  0.98773678  0.90132420    -0.60200
N157        N  0.04371844  0.97872153  0.94492692    -0.04900
N158        N  0.06205144  0.95998548  0.94101206    -0.57400
Mn159      Mn  0.01242774  0.02806957  0.92139564     1.20200
Mn160      Mn  0.01130276  0.97822518  0.97602615     1.10100
Cl161      Cl  0.00989705  0.02926857  0.97441684    -0.85300
C162        C  0.07449668  0.96762657  0.91736547     0.97000
C163        C  0.95465847  0.96412335  0.91033644     0.96800
C164        C  0.68532513  0.22535121  0.28866944    -0.01900
C165        C  0.84463388  0.21578572  0.16713969    -0.01900
C166        C  0.70417778  0.35725037  0.16947986    -0.01900
C167        C  0.84761332  0.33326123  0.30376766    -0.01900
N168        N  0.05199342  0.49951903  0.42199685    -0.05500
N169        N  0.06915613  0.49399256  0.40209219    -0.57600
N170        N  0.99174370  0.47893303  0.44216162    -0.05200
N171        N  0.97541390  0.45892830  0.43609940    -0.59700
N172        N  0.99076947  0.49756999  0.42264243    -0.04800
N173        N  0.97361117  0.49057724  0.40294327    -0.57600
N174        N  0.05296945  0.48087504  0.44149064    -0.04500
N175        N  0.07099915  0.46249958  0.43522557    -0.60100
C176        C  0.08108426  0.47093031  0.41061160     0.96700
C177        C  0.96395366  0.46666509  0.41189594     0.96500
N178        N  0.99232927  0.49709039  0.52731385    -0.05700
N179        N  0.97389338  0.49165657  0.54624759    -0.58200
N180        N  0.05395553  0.48009313  0.50723062    -0.03800
N181        N  0.07184755  0.46132185  0.51311810    -0.59400
N182        N  0.05434109  0.49877196  0.52629902    -0.05700
N183        N  0.07259810  0.49305259  0.54546002    -0.58500
N184        N  0.99202454  0.47870488  0.50791607    -0.03400
N185        N  0.97336984  0.46041120  0.51329381    -0.59500
Mn186      Mn  0.02269821  0.47907922  0.47476241     1.18400
C187        C  0.96191897  0.46897081  0.53704131     0.98800
C188        C  0.08354567  0.46967957  0.53692275     0.99400
N189        N  0.98860220  0.56125922  0.42232562    -0.05700
N190        N  0.96938807  0.56591533  0.40384744    -0.62000
N191        N  0.05001600  0.58209592  0.44072081    -0.04500
N192        N  0.06629120  0.60210721  0.43421356    -0.62700
N193        N  0.05043089  0.56362612  0.42138274    -0.05200
N194        N  0.06716138  0.57076415  0.40136848    -0.62300
N195        N  0.98825189  0.57964211  0.44165728    -0.04100
N196        N  0.96864800  0.59698223  0.43669036    -0.63000
Mn197      Mn  0.02050056  0.53053304  0.42143935     1.10700
C198        C  0.95676998  0.58822757  0.41303276     1.00000
C199        C  0.07715216  0.59463934  0.40986108     1.00100
N200        N  0.05275199  0.56295693  0.52619852    -0.05200
N201        N  0.07081312  0.56940885  0.54530507    -0.60600
N202        N  0.98970597  0.57849736  0.50680708    -0.04600
N203        N  0.96887827  0.59436275  0.51063568    -0.57400
N204        N  0.99078275  0.55988452  0.52626712    -0.05900
N205        N  0.97070164  0.56266595  0.54376739    -0.60200
N206        N  0.05172740  0.58168377  0.50677792    -0.04900
N207        N  0.06914347  0.60105927  0.51236590    -0.57400
Mn208      Mn  0.02277259  0.52972541  0.52727321     1.20200
Mn209      Mn  0.01999620  0.58114653  0.47406292     1.10100
Cl210      Cl  0.02173340  0.53011101  0.47434103    -0.85300
C211        C  0.08115331  0.59319454  0.53643811     0.97000
C212        C  0.95719933  0.58421188  0.53370638     0.96800
C213        C  0.88612584  0.37097204  0.36439730    -0.04800
C214        C  0.89989631  0.39088673  0.34951234     0.09300
C215        C  0.89934407  0.39066415  0.32052600    -0.02200
C216        C  0.88485195  0.37064906  0.30618483    -0.00500
C217        C  0.86772981  0.35182260  0.32067957    -0.04100
C218        C  0.86998487  0.35178309  0.35056609     0.02900
C219        C  0.91646607  0.41125915  0.36454501     0.09800
C220        C  0.91320433  0.41185913  0.30535096     0.35600
C221        C  0.85766114  0.33179618  0.36841995     0.39100
C222        C  0.94457441  0.40770026  0.36704569    -0.04500
C223        C  0.96020618  0.42643737  0.38174803     0.02700
C224        C  0.94770891  0.44842782  0.39463846    -0.04100
C225        C  0.91969309  0.45209802  0.39211373    -0.00300
C226        C  0.90407059  0.43360122  0.37698732    -0.02900
C227        C  0.95732159  0.38432115  0.35518906     0.36400
C228        C  0.90689272  0.47445539  0.40582580     0.40000
C229        C  0.98922812  0.42320742  0.38342466     0.39100
C230        C  0.87518873  0.43727634  0.37483326     0.36100
C231        C  0.88910978  0.37011571  0.39442878     0.36800
C232        C  0.88830676  0.37034769  0.27638908     0.40000
N233        N  0.01237618  0.42068612  0.38458912    -0.38100
N234        N  0.96764408  0.36566059  0.34593369    -0.39700
N235        N  0.89671901  0.49224241  0.41688803    -0.37400
N236        N  0.85214200  0.44048659  0.37352382    -0.39800
N237        N  0.92397862  0.42891459  0.29331151    -0.39600
N238        N  0.89268936  0.37193933  0.25290326    -0.37200
N239        N  0.84842137  0.31677348  0.38417556    -0.38200
N240        N  0.89168660  0.36942923  0.41828217    -0.39900
C241        C  0.77302061  0.38644401  0.19528739    -0.04800
C242        C  0.76941362  0.38240167  0.22403850     0.09300
C243        C  0.74281840  0.38406845  0.23398644    -0.02200
C244        C  0.72082881  0.38332022  0.21504263    -0.00500
C245        C  0.72509563  0.37581466  0.18660828    -0.04100
C246        C  0.75099536  0.38355446  0.17659140     0.02900
C247        C  0.79298020  0.37421536  0.24260405     0.09800
C248        C  0.73775519  0.38521163  0.26350857     0.35600
C249        C  0.75407371  0.39507982  0.14924001     0.39100
C250        C  0.80082489  0.38844955  0.26645168    -0.04500
C251        C  0.82018839  0.37728981  0.28536104     0.02700
C252        C  0.83268686  0.35169204  0.28022661    -0.04100
C253        C  0.83154226  0.34478815  0.25139865    -0.00300
C254        C  0.80926563  0.35243491  0.23512361    -0.02900
C255        C  0.79084399  0.41552174  0.27023443     0.36400
C256        C  0.85357735  0.33230271  0.23658694     0.40000
C257        C  0.83079434  0.39533956  0.30602796     0.39100
C258        C  0.80250541  0.33645260  0.21135535     0.36100
C259        C  0.79932961  0.39449839  0.18521636     0.36800
C260        C  0.69424887  0.39007197  0.22521087     0.40000
N261        N  0.83897575  0.41079341  0.32172981    -0.38100
N262        N  0.78326709  0.43724559  0.27323748    -0.39700
N263        N  0.87077721  0.32261264  0.22405636    -0.37400
N264        N  0.79614923  0.32308232  0.19307820    -0.39800
N265        N  0.73372027  0.38634473  0.28707734    -0.39600
N266        N  0.67337559  0.39570771  0.23396095    -0.37200
N267        N  0.75778125  0.40588898  0.12826102    -0.38200
N268        N  0.82024771  0.40118350  0.17724516    -0.39900
C269        C  0.78667824  0.25396543  0.12753432    -0.04800
C270        C  0.78971561  0.28058179  0.13625350     0.09300
C271        C  0.81568915  0.28848257  0.14451851    -0.02200
C272        C  0.83539389  0.26900015  0.15271078    -0.00500
C273        C  0.82991235  0.24058582  0.15079913    -0.04100
C274        C  0.80696278  0.23460683  0.13325513     0.02900
C275        C  0.76518992  0.29869044  0.13989702     0.09800
C276        C  0.82270974  0.31675416  0.14292263     0.35600
C277        C  0.80433755  0.20907027  0.11941600     0.39100
C278        C  0.74476515  0.29069635  0.15831959    -0.04500
C279        C  0.72151129  0.30642266  0.16204698     0.02700
C280        C  0.72127997  0.33415461  0.15380975    -0.04100
C281        C  0.73811814  0.33930805  0.13026188    -0.00300
C282        C  0.76029863  0.32211996  0.12394472    -0.02900
C283        C  0.74764551  0.26621901  0.17415623     0.36400
C284        C  0.72958166  0.35827850  0.10906647     0.40000
C285        C  0.69757710  0.29228647  0.17135353     0.39100
C286        C  0.77689717  0.32761600  0.09996989     0.36100
C287        C  0.76274184  0.24675677  0.11184138     0.36800
C288        C  0.86127143  0.27990185  0.16002364     0.40000
N289        N  0.67864043  0.28064403  0.17852171    -0.38100
N290        N  0.74996346  0.24676100  0.18700316    -0.39700
N291        N  0.72277244  0.37290547  0.09160646    -0.37400
N292        N  0.79009629  0.33200109  0.08076102    -0.39800
N293        N  0.82849797  0.33922956  0.14152610    -0.39600
N294        N  0.88092261  0.29170633  0.16423004    -0.37200
N295        N  0.80175178  0.18965271  0.10669654    -0.38200
N296        N  0.74380124  0.24104975  0.09909691    -0.39900
C297        C  0.90256544  0.28285630  0.27196480    -0.04800
C298        C  0.88534959  0.26365563  0.25982698     0.09300
C299        C  0.85814541  0.26475546  0.26745338    -0.02200
C300        C  0.84702918  0.28884704  0.27577632    -0.00500
C301        C  0.86304093  0.30912241  0.28883447    -0.04100
C302        C  0.89169517  0.30364630  0.28899298     0.02900
C303        C  0.89376988  0.24348609  0.23809263     0.09800
C304        C  0.84222444  0.24076390  0.27214691     0.35600
C305        C  0.91023316  0.31634273  0.30801547     0.39100
C306        C  0.88372541  0.21751965  0.24030649    -0.04500
C307        C  0.86609290  0.20842416  0.21921406     0.02700
C308        C  0.86651441  0.22109749  0.19162583    -0.04100
C309        C  0.88983335  0.23730461  0.18784207    -0.00300
C310        C  0.90070020  0.25152964  0.21093787    -0.02900
C311        C  0.88791598  0.20281987  0.26613875     0.36400
C312        C  0.90440392  0.23715057  0.16198466     0.40000
C313        C  0.84813595  0.18690843  0.22794586     0.39100
C314        C  0.91992114  0.27295053  0.20682190     0.36100
C315        C  0.93140913  0.27902589  0.27010221     0.36800
C316        C  0.81874543  0.29184180  0.26979778     0.40000
N317        N  0.83441054  0.16975279  0.23599440    -0.38100
N318        N  0.89115259  0.19124437  0.28680057    -0.39700
N319        N  0.91711053  0.23675693  0.14195977    -0.37400
N320        N  0.93535911  0.29003598  0.20326949    -0.39800
N321        N  0.83002765  0.22166754  0.27763881    -0.39600
N322        N  0.79681293  0.29372246  0.26220076    -0.37200
N323        N  0.92562882  0.32552711  0.32334004    -0.38200
N324        N  0.95446098  0.27592348  0.26883105    -0.39900
C325        C  0.64599691  0.29503222  0.27954895    -0.04800
C326        C  0.64058589  0.29343100  0.25142341     0.09300
C327        C  0.63510753  0.26724835  0.24216364    -0.02200
C328        C  0.64420399  0.24474889  0.25832707    -0.00500
C329        C  0.66479288  0.24872539  0.27862400    -0.04100
C330        C  0.66282931  0.27518896  0.29150183     0.02900
C331        C  0.65386142  0.31413784  0.23269027     0.09800
C332        C  0.61883065  0.26364235  0.21755024     0.35600
C333        C  0.67612123  0.28326931  0.31708821     0.39100
C334        C  0.68097538  0.32105360  0.23743952    -0.04500
C335        C  0.69679816  0.32997190  0.21555443     0.02700
C336        C  0.68500167  0.34348062  0.19213859    -0.04100
C337        C  0.65601841  0.34532372  0.19309743    -0.00300
C338        C  0.64089226  0.32758645  0.21053444    -0.02900
C339        C  0.69051350  0.32746295  0.26498614     0.36400
C340        C  0.64212383  0.36898984  0.18317930     0.40000
C341        C  0.72526982  0.32481956  0.21829706     0.39100
C342        C  0.61180122  0.32678227  0.20858006     0.36100
C343        C  0.63771425  0.31890980  0.29421112     0.36800
C344        C  0.63180352  0.21873964  0.25447222     0.40000
N345        N  0.74766744  0.31918117  0.22069253    -0.38100
N346        N  0.69708324  0.33431513  0.28685855    -0.39700
N347        N  0.63107315  0.38858678  0.17704597    -0.37400
N348        N  0.58853906  0.32634959  0.20703315    -0.39800
N349        N  0.60574246  0.26057419  0.19790256    -0.39600
N350        N  0.62115914  0.19837983  0.25093979    -0.37200
N351        N  0.68598679  0.29078406  0.33739881    -0.38200
N352        N  0.63096786  0.33790526  0.30588874    -0.39900
C353        C  0.74131637  0.27927058  0.30075689    -0.04800
C354        C  0.75214170  0.27379669  0.32698136     0.09300
C355        C  0.74000304  0.25350263  0.34318774    -0.02200
C356        C  0.71806938  0.23788404  0.33253231    -0.00500
C357        C  0.70922479  0.24099087  0.30412549    -0.04100
C358        C  0.72298470  0.26151335  0.28830459     0.02900
C359        C  0.77758954  0.28858278  0.33539770     0.09800
C360        C  0.74880346  0.25031993  0.37174704     0.35600
C361        C  0.71803569  0.26554408  0.25891508     0.39100
C362        C  0.77759946  0.31662941  0.33854233    -0.04500
C363        C  0.80123296  0.33189325  0.33296593     0.02700
C364        C  0.82519846  0.31903578  0.32344744    -0.04100
C365        C  0.82658136  0.29098522  0.33144628    -0.00300
C366        C  0.80270229  0.27568629  0.33480528    -0.02900
C367        C  0.75282635  0.32966203  0.34678643     0.36400
C368        C  0.85213151  0.27751257  0.33650099     0.40000
C369        C  0.80154431  0.35893191  0.34325263     0.39100
C370        C  0.80392585  0.24664821  0.33638976     0.36100
C371        C  0.74810910  0.30442898  0.28722032     0.36800
C372        C  0.70566913  0.21922811  0.35167295     0.40000
N373        N  0.79991147  0.37975287  0.35352960    -0.38100
N374        N  0.73302002  0.33994079  0.35337976    -0.39700
N375        N  0.87220622  0.26636094  0.34068054    -0.37400
N376        N  0.80476036  0.22346968  0.33780700    -0.39800
N377        N  0.75568262  0.24806246  0.39461028    -0.39600
N378        N  0.69716328  0.20454181  0.36818184    -0.37200
N379        N  0.71484670  0.26865605  0.23536071    -0.38200
N380        N  0.75381320  0.32525473  0.27819784    -0.39900
C381        C  0.72207465  0.19822483  0.21937296    -0.04800
C382        C  0.74566561  0.18803751  0.23122197     0.09300
C383        C  0.74594436  0.18280535  0.25970587    -0.02200
C384        C  0.72467724  0.19177252  0.27672083    -0.00500
C385        C  0.70339805  0.20917682  0.26619941    -0.04100
C386        C  0.70177293  0.21001929  0.23610805     0.02900
C387        C  0.77181699  0.19161364  0.21584622     0.09800
C388        C  0.76922918  0.16932253  0.27171512     0.35600
C389        C  0.68010211  0.22144957  0.22013542     0.39100
C390        C  0.78653295  0.21487788  0.22121066    -0.04500
C391        C  0.80760768  0.22292014  0.20384735     0.02700
C392        C  0.81854855  0.20526287  0.18310582    -0.04100
C393        C  0.80435539  0.18034904  0.17920911    -0.00300
C394        C  0.78066041  0.17433993  0.19483377    -0.02900
C395        C  0.77980075  0.23072377  0.24522901     0.36400
C396        C  0.81267390  0.16054346  0.15936145     0.40000
C397        C  0.81853314  0.24951494  0.20877452     0.39100
C398        C  0.76547980  0.14999248  0.18977708     0.36100
C399        C  0.71925998  0.19698753  0.18933108     0.36800
C400        C  0.72480336  0.18114835  0.30477133     0.40000
N401        N  0.82690510  0.27079377  0.21275546    -0.38100
N402        N  0.77488782  0.24192680  0.26540091    -0.39700
N403        N  0.81796750  0.14386230  0.14376805    -0.37400
N404        N  0.75325539  0.13063332  0.18569764    -0.39800
N405        N  0.78780023  0.15870359  0.28137097    -0.39600
N406        N  0.72574821  0.17058884  0.32622402    -0.37200
N407        N  0.66447586  0.22882216  0.20391113    -0.38200
N408        N  0.71703098  0.19590140  0.16546861    -0.39900
C409        C  0.88811168  0.12876415  0.06549132    -0.04800
C410        C  0.90118878  0.14533941  0.08498473     0.09300
C411        C  0.92958029  0.14477382  0.08714815    -0.02200
C412        C  0.94468403  0.12709565  0.07069163    -0.00500
C413        C  0.93161392  0.11052447  0.05119122    -0.04100
C414        C  0.90334400  0.11170942  0.04831840     0.02900
C415        C  0.88530139  0.16239638  0.10459611     0.09800
C416        C  0.94320118  0.16232870  0.10655307     0.35600
C417        C  0.88998310  0.09509950  0.02792063     0.39100
C418        C  0.88148635  0.15363525  0.13186024    -0.04500
C419        C  0.87075396  0.17098559  0.15216007     0.02700
C420        C  0.85965006  0.19694183  0.14495331    -0.04100
C421        C  0.86612710  0.20595451  0.11693820    -0.00300
C422        C  0.87780002  0.18851438  0.09722933    -0.02900
C423        C  0.88953304  0.12635048  0.13917154     0.36400
C424        C  0.86456646  0.23376925  0.10782163     0.40000
C425        C  0.87398719  0.16111280  0.18015907     0.39100
C426        C  0.88344902  0.19789512  0.06920025     0.36100
C427        C  0.85898185  0.12885793  0.06360220     0.36800
C428        C  0.97371849  0.12569436  0.07406713     0.40000
N429        N  0.87939924  0.15017387  0.20072272    -0.38100
N430        N  0.89590958  0.10465060  0.14485017    -0.39700
N431        N  0.86409466  0.25554952  0.09925488    -0.37400
N432        N  0.88801305  0.20542704  0.04695199    -0.39800
N433        N  0.95396059  0.17642717  0.12200720    -0.39600
N434        N  0.99685086  0.12440827  0.07684779    -0.37200
N435        N  0.87943383  0.08184822  0.01154154    -0.38200
N436        N  0.83570971  0.12884421  0.06219974    -0.39900
C437        C  0.90381173  0.87340942  0.82461237    -0.04800
C438        C  0.89028124  0.88844468  0.84453003     0.09300
C439        C  0.86218768  0.88620792  0.84639575    -0.02200
C440        C  0.84744253  0.86947986  0.82805487    -0.00500
C441        C  0.86055747  0.85395434  0.80711898    -0.04100
C442        C  0.88937444  0.85832605  0.80475205     0.02900
C443        C  0.90554914  0.90857434  0.86177387     0.09800
C444        C  0.84830342  0.90151557  0.86746573     0.35600
C445        C  0.90490623  0.85097942  0.78052921     0.39100
C446        C  0.91578415  0.93220801  0.84933414    -0.04500
C447        C  0.93159957  0.95042768  0.86486243     0.02700
C448        C  0.93612582  0.94609686  0.89374076    -0.04100
C449        C  0.92377796  0.92327733  0.90644038    -0.00300
C450        C  0.90990696  0.90408178  0.89029511    -0.02900
C451        C  0.91019370  0.93762325  0.82023164     0.36400
C452        C  0.92418033  0.91966228  0.93631264     0.40000
C453        C  0.94343225  0.97320853  0.85048777     0.39100
C454        C  0.90069404  0.87918090  0.90288867     0.36100
C455        C  0.93309637  0.87407153  0.82419162     0.36800
C456        C  0.81852739  0.86998576  0.83114836     0.40000
N457        N  0.95281345  0.99120991  0.83865662    -0.38100
N458        N  0.90569928  0.94187538  0.79703817    -0.39700
N459        N  0.92404967  0.91677095  0.96014903    -0.37400
N460        N  0.89352009  0.85917198  0.91273766    -0.39800
N461        N  0.83732610  0.91349414  0.88443889    -0.39600
N462        N  0.79594628  0.87242290  0.83623012    -0.37200
N463        N  0.91763917  0.84571788  0.76130015    -0.38200
N464        N  0.95639621  0.87443844  0.82398656    -0.39900
C465        C  0.74165313  0.87416238  0.69674324    -0.04800
C466        C  0.76902752  0.86700230  0.69619376     0.09300
C467        C  0.77735884  0.85415854  0.67215889    -0.02200
C468        C  0.75822195  0.84072317  0.65473266    -0.00500
C469        C  0.72927723  0.84673643  0.65588995    -0.04100
C470        C  0.72532711  0.86992321  0.67280304     0.02900
C471        C  0.78636115  0.86577343  0.72251507     0.09800
C472        C  0.80498152  0.85767627  0.66318166     0.35600
C473        C  0.72059354  0.89485726  0.65789730     0.39100
C474        C  0.78064485  0.84543723  0.74169996    -0.04500
C475        C  0.79405296  0.84418993  0.76722468     0.02700
C476        C  0.82066719  0.85460203  0.77017066    -0.04100
C477        C  0.82628107  0.87675670  0.75190031    -0.00300
C478        C  0.80832814  0.88308212  0.72897164    -0.02900
C479        C  0.76421032  0.82307893  0.73339316     0.36400
C480        C  0.85154696  0.89097915  0.75439273     0.40000
C481        C  0.77741815  0.83881576  0.79091755     0.39100
C482        C  0.81388640  0.90556031  0.71072823     0.36100
C483        C  0.73231979  0.89141775  0.71856015     0.36800
C484        C  0.77167412  0.82213263  0.63702665     0.40000
N485        N  0.76287086  0.83604017  0.80936857    -0.38100
N486        N  0.75230175  0.80494792  0.72503908    -0.39700
N487        N  0.87178320  0.90243874  0.75578307    -0.37400
N488        N  0.81824174  0.92355009  0.69608335    -0.39800
N489        N  0.82607397  0.86097683  0.65367636    -0.39600
N490        N  0.78658645  0.80901008  0.62475255    -0.37200
N491        N  0.71746164  0.91494336  0.64607602    -0.38200
N492        N  0.72520225  0.90525887  0.73618149    -0.39900
C493        C  0.76376317  0.74124787  0.63132627    -0.04800
C494        C  0.76537866  0.74869245  0.60355576     0.09300
C495        C  0.78577744  0.73569636  0.58825816    -0.02200
C496        C  0.80332581  0.71657273  0.60193877    -0.00500
C497        C  0.79517425  0.70315043  0.62733497    -0.04100
C498        C  0.77261588  0.71618506  0.64054856     0.02900
C499        C  0.74362272  0.76824575  0.59336496     0.09800
C500        C  0.78971785  0.74236445  0.55938274     0.35600
C501        C  0.76178082  0.70856912  0.66731748     0.39100
C502        C  0.74847558  0.79522975  0.58539609    -0.04500
C503        C  0.73272087  0.81627638  0.59740932     0.02700
C504        C  0.71336009  0.80995808  0.61839945    -0.04100
C505        C  0.70191703  0.78370321  0.61469518    -0.00300
C506        C  0.71735466  0.76300568  0.60265537    -0.02900
C507        C  0.77032189  0.80171135  0.56681901     0.36400
C508        C  0.67369573  0.77789471  0.61913504     0.40000
C509        C  0.73824041  0.84407999  0.59021307     0.39100
C510        C  0.70726968  0.73568679  0.60180248     0.36100
C511        C  0.75948154  0.76155769  0.65190626     0.36800
C512        C  0.83052285  0.71424871  0.59160585     0.40000
N513        N  0.74253369  0.86628617  0.58455359    -0.38100
N514        N  0.78759920  0.80748720  0.55190415    -0.39700
N515        N  0.65143340  0.77133301  0.62125781    -0.37400
N516        N  0.69901585  0.71398315  0.60118106    -0.39800
N517        N  0.79297923  0.74729447  0.53615212    -0.39600
N518        N  0.85224761  0.71289797  0.58316787    -0.37200
N519        N  0.75260023  0.70412956  0.68878285    -0.38200
N520        N  0.75802732  0.77654600  0.66992596    -0.39900
C521        C  0.86754075  0.75610136  0.76898406    -0.04800
C522        C  0.84501479  0.75520787  0.73750890     0.09300
C523        C  0.83172529  0.78679241  0.72349367    -0.02200
C524        C  0.84141386  0.81832851  0.73661108    -0.00500
C525        C  0.86207682  0.82110905  0.76725571    -0.04100
C526        C  0.87714679  0.78941973  0.78395061     0.02900
C527        C  0.84084944  0.73124973  0.71810054     0.09800
C528        C  0.81889473  0.79005133  0.69738534     0.35600
C529        C  0.89310011  0.79088236  0.80884485     0.39100
C530        C  0.81570794  0.72958658  0.70499942    -0.04500
C531        C  0.81508493  0.72257504  0.67718403     0.02700
C532        C  0.82734629  0.69853552  0.66966184    -0.04100
C533        C  0.85539641  0.70167231  0.67895426    -0.00300
C534        C  0.86170275  0.71684409  0.70416939    -0.02900
C535        C  0.79238213  0.74173519  0.71660908     0.36400
C536        C  0.87714628  0.69924534  0.65919430     0.40000
C537        C  0.82255073  0.74413078  0.65802297     0.39100
C538        C  0.88931807  0.72025900  0.71312197     0.36100
C539        C  0.87905261  0.73187278  0.78023302     0.36800
C540        C  0.84889100  0.83764097  0.71553542     0.40000
N541        N  0.82982655  0.75974834  0.64177155    -0.38100
N542        N  0.77461337  0.75303292  0.72621913    -0.39700
N543        N  0.89481775  0.69780160  0.64373080    -0.37400
N544        N  0.91145785  0.72285064  0.72024689    -0.39800
N545        N  0.80868373  0.79672225  0.67702559    -0.39600
N546        N  0.85753159  0.85277050  0.69960220    -0.37200
N547        N  0.90606491  0.79228689  0.82878502    -0.38200
N548        N  0.88829738  0.71237469  0.78933470    -0.39900
C549        C  0.84838041  0.64316544  0.58333526    -0.04800
C550        C  0.87181959  0.63368622  0.59606875     0.09300
C551        C  0.87455990  0.63507868  0.62485500    -0.02200
C552        C  0.85524221  0.64884931  0.64074637    -0.00500
C553        C  0.83318305  0.66325343  0.62756048    -0.04100
C554        C  0.82834758  0.65596532  0.59908878     0.02900
C555        C  0.89315387  0.62094336  0.57910942     0.09800
C556        C  0.89709677  0.62140644  0.63818567     0.35600
C557        C  0.80332993  0.66071839  0.58444016     0.39100
C558        C  0.91369312  0.63693769  0.56756151    -0.04500
C559        C  0.93425130  0.62502058  0.55201280     0.02700
C560        C  0.93437851  0.59693119  0.54807785    -0.04100
C561        C  0.91326154  0.58104174  0.55898531    -0.00300
C562        C  0.89256994  0.59310444  0.57431011    -0.02900
C563        C  0.91371284  0.66570876  0.57184956     0.36400
C564        C  0.91243848  0.55239803  0.55401930     0.40000
C565        C  0.95582599  0.64166314  0.54112648     0.39100
C566        C  0.87049644  0.57702983  0.58499883     0.36100
C567        C  0.84476773  0.63916801  0.55367296     0.36800
C568        C  0.85821145  0.64600158  0.67072858     0.40000
N569        N  0.97303563  0.65488775  0.53239687    -0.38100
N570        N  0.91379544  0.68867031  0.57516316    -0.39700
N571        N  0.91169140  0.52953470  0.55016080    -0.37400
N572        N  0.85275809  0.56434836  0.59344622    -0.39800
N573        N  0.91488441  0.61021784  0.64870608    -0.39600
N574        N  0.86113825  0.64310202  0.69441261    -0.37200
N575        N  0.78527535  0.66397844  0.56953763    -0.38200
N576        N  0.84193379  0.63593251  0.53011103    -0.39900
C577        C  0.65887598  0.73888784  0.72100043    -0.04800
C578        C  0.66006874  0.76505113  0.73176238     0.09300
C579        C  0.66198353  0.76744879  0.76071503    -0.02200
C580        C  0.66832008  0.74480248  0.77773604    -0.00500
C581        C  0.67554859  0.71931837  0.76583557    -0.04100
C582        C  0.66646580  0.71618404  0.73755522     0.02900
C583        C  0.66460540  0.78913443  0.71280915     0.09800
C584        C  0.65713242  0.79341258  0.77297009     0.35600
C585        C  0.66171516  0.69051667  0.72493192     0.39100
C586        C  0.64705323  0.79743359  0.69097238    -0.04500
C587        C  0.65770647  0.81271409  0.66784457     0.02700
C588        C  0.68691323  0.81551364  0.66460843    -0.04100
C589        C  0.70117642  0.79909136  0.68370757    -0.00300
C590        C  0.69094270  0.79892881  0.71076975    -0.02900
C591        C  0.61875716  0.79064694  0.69246474     0.36400
C592        C  0.70378457  0.77175630  0.67428542     0.40000
C593        C  0.63857707  0.82210155  0.64713600     0.39100
C594        C  0.69613477  0.82233332  0.72723886     0.36100
C595        C  0.65018776  0.73515091  0.69248773     0.36800
C596        C  0.66860250  0.74833430  0.80756568     0.40000
N597        N  0.62287980  0.82907625  0.63077164    -0.38100
N598        N  0.59612302  0.78520918  0.69353897    -0.39700
N599        N  0.70432468  0.74964059  0.66713206    -0.37400
N600        N  0.69981014  0.84128208  0.74040904    -0.39800
N601        N  0.65299152  0.81415051  0.78264366    -0.39600
N602        N  0.66851785  0.75144340  0.83130773    -0.37200
N603        N  0.65604780  0.67150815  0.71255956    -0.38200
N604        N  0.64300513  0.73165553  0.66994318    -0.39900
C605        C  0.75410941  0.66812117  0.73921421    -0.04800
C606        C  0.74024922  0.65036681  0.72176052     0.09300
C607        C  0.71414475  0.64217178  0.72968137    -0.02200
C608        C  0.70045302  0.65562428  0.75145854    -0.00500
C609        C  0.71222040  0.67848502  0.76451254    -0.04100
C610        C  0.74120037  0.67917733  0.76208997     0.02900
C611        C  0.75382993  0.64129007  0.69560896     0.09800
C612        C  0.70188737  0.61931155  0.71621974     0.35600
C613        C  0.75902067  0.68325800  0.78560848     0.39100
C614        C  0.78016823  0.63087437  0.69649146    -0.04500
C615        C  0.79825899  0.63724781  0.67491914     0.02700
C616        C  0.79128443  0.65825050  0.65595658    -0.04100
C617        C  0.76316272  0.65629301  0.64842227    -0.00300
C618        C  0.74424574  0.64977409  0.66945454    -0.02900
C619        C  0.78855022  0.61389717  0.71949523     0.36400
C620        C  0.75225390  0.66363521  0.62156167     0.40000
C621        C  0.81196908  0.61397013  0.66416711     0.39100
C622        C  0.71602974  0.65640017  0.66552040     0.36100
C623        C  0.78260714  0.67360764  0.73511548     0.36800
C624        C  0.67529205  0.64448201  0.76127016     0.40000
N625        N  0.82261609  0.59505793  0.65583582    -0.38100
N626        N  0.79521586  0.60055835  0.73805601    -0.39700
N627        N  0.74109307  0.66947495  0.60127488    -0.37400
N628        N  0.69368045  0.66209869  0.66200589    -0.39800
N629        N  0.69211023  0.60098418  0.70556880    -0.39600
N630        N  0.65508700  0.63534338  0.76850395    -0.37200
N631        N  0.77427329  0.68402786  0.80381992    -0.38200
N632        N  0.80547927  0.67665376  0.73195407    -0.39900
C633        C  0.74682269  0.75900717  0.78131152    -0.04800
C634        C  0.76506370  0.75402796  0.80243393     0.09300
C635        C  0.75601476  0.73619921  0.82373320    -0.02200
C636        C  0.73063353  0.72224190  0.82073714    -0.00500
C637        C  0.71822376  0.72044204  0.79370628    -0.04100
C638        C  0.72940036  0.73866447  0.77360344     0.02900
C639        C  0.79156981  0.76978989  0.80165692     0.09800
C640        C  0.77318754  0.73055788  0.84741132     0.35600
C641        C  0.72392137  0.73723472  0.74442354     0.39100
C642        C  0.79784033  0.78766735  0.82274266    -0.04500
C643        C  0.82003037  0.80426027  0.81966631     0.02700
C644        C  0.83026408  0.80917981  0.79285127    -0.04100
C645        C  0.83252383  0.78639878  0.77174887    -0.00300
C646        C  0.81169303  0.76529746  0.78063195    -0.02900
C647        C  0.78072913  0.79067750  0.84677014     0.36400
C648        C  0.87593691  0.78866539  0.73722131     0.40000
C649        C  0.83447178  0.81244794  0.84428410     0.39100
C650        C  0.81393515  0.73646625  0.77720145     0.36100
C651        C  0.73527272  0.78538160  0.78034323     0.36800
C652        C  0.71919073  0.70968349  0.84503651     0.40000
N653        N  0.84621663  0.81790360  0.86425467    -0.38100
N654        N  0.76688726  0.79349085  0.86573955    -0.39700
N655        N  0.89447988  0.78961812  0.72268091    -0.37400
N656        N  0.81637787  0.71345906  0.77578471    -0.39800
N657        N  0.78697181  0.72574564  0.86623058    -0.39600
N658        N  0.71057629  0.70051690  0.86526884    -0.37200
N659        N  0.71997956  0.73588328  0.72092015    -0.38200
N660        N  0.72421338  0.80573705  0.78104975    -0.39900
C661        C  0.85185941  0.89029786  0.09180445    -0.04800
C662        C  0.87378438  0.90455237  0.10232336     0.09300
C663        C  0.87757370  0.90575066  0.13099403    -0.02200
C664        C  0.86015582  0.89186835  0.14945680    -0.00500
C665        C  0.83883134  0.87464200  0.13962691    -0.04100
C666        C  0.83383573  0.87661551  0.10981403     0.02900
C667        C  0.89187755  0.92033251  0.08330170     0.09800
C668        C  0.89989653  0.92173029  0.14151309     0.35600
C669        C  0.80926598  0.86787546  0.09617007     0.39100
C670        C  0.88684067  0.94780456  0.07818366    -0.04500
C671        C  0.90502537  0.96331597  0.06226703     0.02700
C672        C  0.92819278  0.95131794  0.05078149    -0.04100
C673        C  0.93267208  0.92348995  0.05522877    -0.00300
C674        C  0.91468343  0.90818011  0.07157402    -0.02900
C675        C  0.86293989  0.96009584  0.08960949     0.36400
C676        C  0.95639337  0.91063207  0.04408693     0.40000
C677        C  0.89960758  0.99157989  0.05748512     0.39100
C678        C  0.91994248  0.87997400  0.07694294     0.36100
C679        C  0.84719998  0.89088016  0.06195406     0.36800
C680        C  0.86519961  0.89700699  0.17839097     0.40000
N681        N  0.89524394  0.01414143  0.05378336    -0.38100
N682        N  0.84380593  0.96974437  0.09876194    -0.39700
N683        N  0.97521601  0.90022173  0.03514903    -0.37400
N684        N  0.92417404  0.85748882  0.08126785    -0.39800
N685        N  0.91767384  0.93450581  0.14967223    -0.39600
N686        N  0.87183787  0.90405058  0.20016949    -0.37200
N687        N  0.79036537  0.86158624  0.08361895    -0.38200
N688        N  0.84338332  0.89145397  0.03826398    -0.39900
C689        C  0.72665180  0.76174140  0.11617501    -0.04800
C690        C  0.74753114  0.77070966  0.13369613     0.09300
C691        C  0.75207830  0.75708635  0.15866462    -0.02200
C692        C  0.73436075  0.73706269  0.16804590    -0.00500
C693        C  0.71376922  0.72587410  0.15023828    -0.04100
C694        C  0.71003449  0.73940685  0.12389374     0.02900
C695        C  0.76415881  0.79560181  0.12804211     0.09800
C696        C  0.77736257  0.76142784  0.17302071     0.35600
C697        C  0.68956152  0.73174866  0.10407524     0.39100
C698        C  0.75360861  0.82088564  0.13400677    -0.04500
C699        C  0.77092793  0.84274347  0.14071367     0.02700
C700        C  0.79964379  0.83892290  0.14329013    -0.04100
C701        C  0.80930559  0.81532591  0.12929789    -0.00300
C702        C  0.79179314  0.79382949  0.12253039    -0.02900
C703        C  0.72464207  0.82448109  0.13180412     0.36400
C704        C  0.83698245  0.81306397  0.12030554     0.40000
C705        C  0.75880421  0.86880927  0.13724598     0.39100
C706        C  0.80228892  0.76932763  0.11071810     0.36100
C707        C  0.72353542  0.77458774  0.08923930     0.36800
C708        C  0.73998365  0.72619705  0.19545515     0.40000
N709        N  0.74676856  0.88820051  0.13243468    -0.38100
N710        N  0.70157328  0.82728085  0.12979150    -0.39700
N711        N  0.85846314  0.81020380  0.11165120    -0.37400
N712        N  0.81087737  0.74994873  0.10116263    -0.39800
N713        N  0.79857624  0.76426208  0.18250342    -0.39600
N714        N  0.74521135  0.71743726  0.21707524    -0.37200
N715        N  0.67372470  0.72677267  0.08715790    -0.38200
N716        N  0.72124262  0.78473434  0.06767987    -0.39900
C717        C  0.79828709  0.68666996  0.21144486    -0.04800
C718        C  0.78971192  0.65984075  0.21215404     0.09300
C719        C  0.80118671  0.64353497  0.23324142    -0.02200
C720        C  0.81827307  0.65504862  0.25424179    -0.00500
C721        C  0.81986743  0.68383701  0.25753167    -0.04100
C722        C  0.80722844  0.69887875  0.23553581     0.02900
C723        C  0.76767181  0.65105263  0.19196008     0.09800
C724        C  0.79819242  0.61471134  0.23129039     0.35600
C725        C  0.80241282  0.72731147  0.23679045     0.39100
C726        C  0.76904408  0.66014597  0.16469851    -0.04500
C727        C  0.74872326  0.67785607  0.15500255     0.02700
C728        C  0.72215554  0.67796536  0.16812056    -0.04100
C729        C  0.71865267  0.65512964  0.18583286    -0.00300
C730        C  0.74138753  0.64455469  0.20074610    -0.02900
C731        C  0.79307871  0.65432454  0.14882709     0.36400
C732        C  0.69312621  0.64127131  0.18763722     0.40000
C733        C  0.75768968  0.69587824  0.13316499     0.39100
C734        C  0.73768329  0.62601839  0.22362073     0.36100
C735        C  0.80383561  0.70056960  0.18559374     0.36800
C736        C  0.83430385  0.63659219  0.27057591     0.40000
N737        N  0.76627829  0.70974979  0.11596099    -0.38100
N738        N  0.81225208  0.64969641  0.13622301    -0.39700
N739        N  0.67346181  0.62888287  0.18921587    -0.37400
N740        N  0.73437717  0.61125082  0.24194904    -0.39800
N741        N  0.79595145  0.59166566  0.22964814    -0.39600
N742        N  0.84701508  0.62092109  0.28269404    -0.37200
N743        N  0.79651235  0.74958827  0.23791802    -0.38200
N744        N  0.81005829  0.71096912  0.16505560    -0.39900
C745        C  0.86665424  0.76984526  0.26315977    -0.04800
C746        C  0.86441077  0.76933828  0.23397991     0.09300
C747        C  0.86468874  0.74401138  0.22123254    -0.02200
C748        C  0.86130149  0.72033021  0.23739967    -0.00500
C749        C  0.85399421  0.72200221  0.26625487    -0.04100
C750        C  0.86340386  0.74592150  0.27905236     0.02900
C751        C  0.85729529  0.79430208  0.21725758     0.09800
C752        C  0.86698313  0.74226235  0.19135920     0.35600
C753        C  0.87791200  0.74427949  0.30501324     0.39100
C754        C  0.87371498  0.80552306  0.19628986    -0.04500
C755        C  0.86376669  0.82645377  0.17825451     0.02700
C756        C  0.83571038  0.83411376  0.17868584    -0.04100
C757        C  0.81960742  0.81950907  0.19840483    -0.00300
C758        C  0.83130032  0.80432984  0.21979247    -0.02900
C759        C  0.90126087  0.79621044  0.19416913     0.36400
C760        C  0.79056360  0.81977763  0.19820456     0.40000
C761        C  0.88277113  0.83796977  0.15894318     0.39100
C762        C  0.81665506  0.80079297  0.24536367     0.36100
C763        C  0.87296308  0.79488340  0.27677980     0.36800
C764        C  0.86558838  0.69464826  0.22405812     0.40000
N765        N  0.89892889  0.84608380  0.14381292    -0.38100
N766        N  0.92319158  0.78859888  0.19248547    -0.39700
N767        N  0.76757783  0.81656718  0.19854296    -0.37400
N768        N  0.80464964  0.79837226  0.26564244    -0.39800
N769        N  0.86904087  0.74088841  0.16753164    -0.39600
N770        N  0.86921046  0.67435377  0.21322917    -0.37200
N771        N  0.89122174  0.74350499  0.32478665    -0.38200
N772        N  0.87800736  0.81481984  0.28777043    -0.39900
C773        C  0.91003949  0.64450345  0.38586223    -0.04800
C774        C  0.89743372  0.63203872  0.36310802     0.09300
C775        C  0.90189212  0.60448332  0.35867572    -0.02200
C776        C  0.92017158  0.58989673  0.37566427    -0.00500
C777        C  0.93468293  0.60283202  0.39730207    -0.04100
C778        C  0.92855163  0.63017490  0.40282233     0.02900
C779        C  0.88147050  0.64855137  0.34237795     0.09800
C780        C  0.88780296  0.59107902  0.33632069     0.35600
C781        C  0.94161036  0.64424899  0.42540673     0.39100
C782        C  0.89487807  0.66196887  0.32088147    -0.04500
C783        C  0.88060452  0.67771033  0.30100458     0.02700
C784        C  0.85169970  0.68134512  0.30257974    -0.04100
C785        C  0.83854167  0.66623214  0.32440983    -0.00300
C786        C  0.85338804  0.65050881  0.34394723    -0.02900
C787        C  0.92402534  0.65922943  0.31918302     0.36400
C788        C  0.80957761  0.66606976  0.32778166     0.40000
C789        C  0.89720677  0.68876403  0.27910893     0.39100
C790        C  0.83971214  0.63609433  0.36608897     0.36100
C791        C  0.90417015  0.67240064  0.39160633     0.36800
C792        C  0.92362057  0.56143394  0.37067328     0.40000
N793        N  0.91224737  0.69703608  0.26286976    -0.38100
N794        N  0.94718136  0.65705805  0.31784677    -0.39700
N795        N  0.78678051  0.66509363  0.33253696    -0.37400
N796        N  0.82892695  0.62455443  0.38375557    -0.39800
N797        N  0.87659681  0.58002525  0.31869693    -0.39600
N798        N  0.92627034  0.53874730  0.36655504    -0.37200
N799        N  0.95189452  0.65562885  0.44340938    -0.38200
N800        N  0.89950255  0.69460518  0.39642692    -0.39900
C801        C  0.67784965  0.80076336  0.23296582    -0.04800
C802        C  0.66451564  0.77823561  0.24423686     0.09300
C803        C  0.65094004  0.78202756  0.26973560    -0.02200
C804        C  0.65605823  0.80560476  0.28573859    -0.00500
C805        C  0.67564387  0.82471914  0.27682963    -0.04100
C806        C  0.67812639  0.82502310  0.24740645     0.02900
C807        C  0.66301097  0.75283008  0.22704200     0.09800
C808        C  0.63061704  0.76299103  0.27852850     0.35600
C809        C  0.67615577  0.84951086  0.23112003     0.39100
C810        C  0.67466419  0.72869110  0.23601006    -0.04500
C811        C  0.68491326  0.70988580  0.21651208     0.02700
C812        C  0.68242083  0.71443260  0.18686676    -0.04100
C813        C  0.66332282  0.73544649  0.17970996    -0.00300
C814        C  0.65412314  0.75414734  0.19946726    -0.02900
C815        C  0.67487052  0.72253242  0.26554885     0.36400
C816        C  0.65053929  0.73721935  0.15270077     0.40000
C817        C  0.69547126  0.68584046  0.22906221     0.39100
C818        C  0.63543742  0.77534579  0.19148890     0.36100
C819        C  0.69210434  0.79906281  0.20690838     0.36800
C820        C  0.63679704  0.81314231  0.30667460     0.40000
N821        N  0.70228895  0.66791872  0.24277450    -0.38100
N822        N  0.67497242  0.71717518  0.28895245    -0.39700
N823        N  0.63810438  0.73912648  0.13241309    -0.37400
N824        N  0.62055250  0.79220727  0.18518042    -0.39800
N825        N  0.61434937  0.74781516  0.28564304    -0.39600
N826        N  0.62092144  0.81915114  0.32295747    -0.37200
N827        N  0.67412897  0.86870689  0.21754793    -0.38200
N828        N  0.70360701  0.79683676  0.18629301    -0.39900
C829        C  0.73650157  0.90399169  0.26314699    -0.04800
C830        C  0.74612239  0.89146336  0.23904285     0.09300
C831        C  0.73782230  0.86555672  0.23450721    -0.02200
C832        C  0.72877627  0.84976888  0.25642761    -0.00500
C833        C  0.71315046  0.86155914  0.27805431    -0.04100
C834        C  0.71753919  0.89020676  0.28083476     0.02900
C835        C  0.77114807  0.89894904  0.22317512     0.09800
C836        C  0.73188608  0.85805689  0.20651212     0.35600
C837        C  0.70624669  0.90539942  0.30322618     0.39100
C838        C  0.79518268  0.88725527  0.23246757    -0.04500
C839        C  0.81368037  0.87658142  0.21326109     0.02700
C840        C  0.80793334  0.87731507  0.18354957    -0.04100
C841        C  0.79041569  0.89887373  0.17626584    -0.00300
C842        C  0.77011472  0.90728152  0.19515350    -0.02900
C843        C  0.79972164  0.88427737  0.26212238     0.36400
C844        C  0.79483723  0.91426034  0.15109199     0.40000
C845        C  0.83858191  0.86653568  0.22550533     0.39100
C846        C  0.74760841  0.92335041  0.18567731     0.36100
C847        C  0.74582780  0.93078062  0.26942811     0.36800
C848        C  0.73557149  0.82167823  0.25505462     0.40000
N849        N  0.85806192  0.85895368  0.23632243    -0.38100
N850        N  0.80372063  0.88203706  0.28567611    -0.39700
N851        N  0.79830159  0.92697602  0.13122533    -0.37400
N852        N  0.72941689  0.93596743  0.17807816    -0.39800
N853        N  0.72504599  0.85321300  0.18423693    -0.39600
N854        N  0.74202435  0.79953061  0.25325005    -0.37200
N855        N  0.69780787  0.91844258  0.32084968    -0.38200
N856        N  0.75336035  0.95215006  0.27458181    -0.39900
C857        C  0.72913438  0.77631573  0.32667149    -0.04800
C858        C  0.75633087  0.78195490  0.32047148     0.09300
C859        C  0.76372974  0.80927676  0.31873330    -0.02200
C860        C  0.74355310  0.82935347  0.31665626    -0.00500
C861        C  0.71569606  0.82230874  0.31258686    -0.04100
C862        C  0.70896385  0.79627757  0.32330166     0.02900
C863        C  0.77576401  0.75903316  0.31463799     0.09800
C864        C  0.79179302  0.81721558  0.31984004     0.35600
C865        C  0.68392224  0.79143645  0.33760812     0.39100
C866        C  0.76826684  0.73948095  0.29519484    -0.04500
C867        C  0.78399801  0.71642859  0.29132256     0.02700
C868        C  0.81203140  0.71661393  0.29871982    -0.04100
C869        C  0.81745082  0.73297217  0.32247735    -0.00300
C870        C  0.79942348  0.75397323  0.33025462    -0.02900
C871        C  0.74462147  0.74329767  0.27810900     0.36400
C872        C  0.83704838  0.72442149  0.34299135     0.40000
C873        C  0.76985189  0.69263544  0.28182448     0.39100
C874        C  0.80399169  0.76863120  0.35566282     0.36100
C875        C  0.72225663  0.75002372  0.33784564     0.36800
C876        C  0.75134571  0.85677658  0.32259953     0.40000
N877        N  0.75798356  0.67394518  0.27456897    -0.38100
N878        N  0.72603217  0.74705705  0.26418332    -0.39700
N879        N  0.85177891  0.71759370  0.36034584    -0.37400
N880        N  0.80756536  0.78025284  0.37601263    -0.39800
N881        N  0.81409381  0.82395205  0.32090438    -0.39600
N882        N  0.75805921  0.87823538  0.32849784    -0.37200
N883        N  0.66519881  0.78634320  0.35085025    -0.38200
N884        N  0.71697175  0.72908896  0.34687108    -0.39900
C885        C  0.14895937  0.90343714  0.82758506    -0.04800
C886        C  0.15090460  0.90184428  0.85641556     0.09300
C887        C  0.17141362  0.88643288  0.86844229    -0.02200
C888        C  0.18957622  0.87157958  0.85183178    -0.00500
C889        C  0.18706015  0.87092039  0.82171073    -0.04100
C890        C  0.16700786  0.88917832  0.81042801     0.02900
C891        C  0.13233599  0.91832013  0.87401292     0.09800
C892        C  0.17484743  0.88751119  0.89840041     0.35600
C893        C  0.16432567  0.89574684  0.78133644     0.39100
C894        C  0.10896678  0.90669583  0.88543073    -0.04500
C895        C  0.08970424  0.92292551  0.89871284     0.02700
C896        C  0.09471501  0.95063969  0.90278792    -0.04100
C897        C  0.11924087  0.96172403  0.89326599    -0.00300
C898        C  0.13747925  0.94587735  0.87808502    -0.02900
C899        C  0.10499315  0.87791978  0.88376955     0.36400
C900        C  0.12671304  0.98880324  0.90076246     0.40000
C901        C  0.06420222  0.91120038  0.90696966     0.39100
C902        C  0.16169074  0.95781699  0.86664544     0.36100
C903        C  0.12847547  0.92100029  0.81549727     0.36800
C904        C  0.21207688  0.86024162  0.86723885     0.40000
N905        N  0.04375399  0.90184199  0.91322992    -0.38100
N906        N  0.10222668  0.85488321  0.88289290    -0.39700
N907        N  0.13332433  0.01009018  0.90734000    -0.37400
N908        N  0.18096528  0.96718403  0.85725388    -0.39800
N909        N  0.17772701  0.88872702  0.92217742    -0.39600
N910        N  0.22945369  0.85178285  0.88083621    -0.37200
N911        N  0.15964351  0.90425914  0.75942476    -0.38200
N912        N  0.11236162  0.93517720  0.80602122    -0.39900
C913        C  0.16730824  0.76940996  0.69691226    -0.04800
C914        C  0.17286154  0.76739693  0.72534661     0.09300
C915        C  0.17941069  0.74207827  0.73628224    -0.02200
C916        C  0.18533943  0.72016006  0.71855671    -0.00500
C917        C  0.18648132  0.72374457  0.68882554    -0.04100
C918        C  0.17260098  0.74754362  0.67910162     0.02900
C919        C  0.17755670  0.79212206  0.74264066     0.09800
C920        C  0.17942392  0.73864944  0.76625766     0.35600
C921        C  0.16154289  0.74926984  0.65132857     0.39100
C922        C  0.15939221  0.80196929  0.76249677    -0.04500
C923        C  0.16693305  0.82363503  0.78037473     0.02700
C924        C  0.19454657  0.83267932  0.78173401    -0.04100
C925        C  0.21256294  0.81967819  0.76282548    -0.00300
C926        C  0.20294541  0.80372026  0.74125369    -0.02900
C927        C  0.13281059  0.79007611  0.76407178     0.36400
C928        C  0.24147850  0.82257489  0.76409435     0.40000
C929        C  0.14597241  0.83484562  0.79738125     0.39100
C930        C  0.21919443  0.80031307  0.71680239     0.36100
C931        C  0.15642749  0.79436400  0.68597692     0.36800
C932        C  0.18401892  0.69431216  0.73196470     0.40000
N933        N  0.12834136  0.84291944  0.81049531    -0.38100
N934        N  0.11163454  0.78045548  0.76545121    -0.39700
N935        N  0.26468741  0.82202123  0.76460020    -0.37400
N936        N  0.23197156  0.79921020  0.69698343    -0.39800
N937        N  0.17923049  0.73614923  0.79013424    -0.39600
N938        N  0.18088389  0.67509878  0.74522905    -0.37200
N939        N  0.15095494  0.75128254  0.62997744    -0.38200
N940        N  0.14762523  0.81424788  0.67731339    -0.39900
C941        C  0.13978062  0.67073229  0.63152775    -0.04800
C942        C  0.15111609  0.65820061  0.60849479     0.09300
C943        C  0.17880156  0.66095764  0.60402284    -0.02200
C944        C  0.19539768  0.67584566  0.62248445    -0.00500
C945        C  0.18450563  0.69020749  0.64576274    -0.04100
C946        C  0.15584401  0.68593794  0.65024248     0.02900
C947        C  0.13388205  0.64155298  0.58907748     0.09800
C948        C  0.19018675  0.64892420  0.57933559     0.35600
C949        C  0.14180691  0.69438605  0.67498075     0.39100
C950        C  0.11612300  0.65409446  0.57003489    -0.04500
C951        C  0.09928851  0.63857813  0.55252788     0.02700
C952        C  0.10055526  0.61006072  0.55316445    -0.04100
C953        C  0.11958654  0.59767750  0.57123326    -0.00300
C954        C  0.13537042  0.61323821  0.58966445    -0.02900
C955        C  0.11486579  0.68316917  0.56889362     0.36400
C956        C  0.12383752  0.56890914  0.57022597     0.40000
C957        C  0.08006707  0.65230217  0.53466707     0.39100
C958        C  0.15259456  0.60003166  0.60997014     0.36100
C959        C  0.11109649  0.66718060  0.63638214     0.36800
C960        C  0.22348937  0.67676407  0.61496578     0.40000
N961        N  0.06475073  0.66342510  0.52051327    -0.38100
N962        N  0.11389237  0.70636436  0.56821551    -0.39700
N963        N  0.12746943  0.54600504  0.56918005    -0.37400
N964        N  0.16612795  0.58951977  0.62637677    -0.39800
N965        N  0.19923814  0.63953723  0.55962154    -0.39600
N966        N  0.24469682  0.67584903  0.60522536    -0.37200
N967        N  0.12945392  0.70063907  0.69415272    -0.38200
N968        N  0.08826303  0.66440048  0.64014029    -0.39900
C969        C  0.23539902  0.76548068  0.61880477    -0.04800
C970        C  0.25557318  0.77524270  0.63671330     0.09300
C971        C  0.25977490  0.76175231  0.66165857    -0.02200
C972        C  0.24082790  0.74329032  0.67184394    -0.00500
C973        C  0.22169286  0.73042113  0.65375914    -0.04100
C974        C  0.21969414  0.74227081  0.62625761     0.02900
C975        C  0.27228281  0.80036086  0.63170930     0.09800
C976        C  0.28525290  0.76576421  0.67551459     0.35600
C977        C  0.20122599  0.73255847  0.60533888     0.39100
C978        C  0.26285000  0.82534173  0.64056610    -0.04500
C979        C  0.28118794  0.84626584  0.64724562     0.02700
C980        C  0.30992685  0.84174706  0.64838448    -0.04100
C981        C  0.31821760  0.81913572  0.63213861    -0.00300
C982        C  0.29971407  0.79838730  0.62500340    -0.02900
C983        C  0.23400945  0.82972366  0.64201717     0.36400
C984        C  0.34313079  0.81919314  0.61690029     0.40000
C985        C  0.27026931  0.87316479  0.64689652     0.39100
C986        C  0.30878829  0.77457589  0.61073982     0.36100
C987        C  0.23164503  0.77874260  0.59221040     0.36800
C988        C  0.24273856  0.73667710  0.70095980     0.40000
N989        N  0.26104688  0.89438345  0.64472133    -0.38100
N990        N  0.21099917  0.83322532  0.64301450    -0.39700
N991        N  0.36164776  0.81819862  0.60248024    -0.37400
N992        N  0.31590294  0.75564408  0.59918650    -0.39800
N993        N  0.30688008  0.76952423  0.68348944    -0.39600
N994        N  0.24417382  0.73159904  0.72428757    -0.37200
N995        N  0.18689713  0.72570211  0.58774063    -0.38200
N996        N  0.22862414  0.78926232  0.57093384    -0.39900
C997        C  0.25668137  0.91153879  0.77491978    -0.04800
C998        C  0.25621700  0.90777871  0.74601780     0.09300
C999        C  0.23305372  0.89611900  0.73496182    -0.02200
C1000       C  0.21656169  0.87947192  0.75165455    -0.00500
C1001       C  0.22117463  0.87716460  0.78158372    -0.04100
C1002       C  0.23692187  0.89894430  0.79201730     0.02900
C1003       C  0.28157542  0.90378209  0.72955979     0.09800
C1004       C  0.22647517  0.90111844  0.70602857     0.35600
C1005       C  0.23145875  0.91043659  0.81888409     0.39100
C1006       C  0.29205185  0.87826830  0.73223968    -0.04500
C1007       C  0.29996612  0.86448795  0.70870659     0.02700
C1008       C  0.31257157  0.87844295  0.68625478    -0.04100
C1009       C  0.30623976  0.90681558  0.68509899    -0.00300
C1010       C  0.28839200  0.91831234  0.70526133    -0.02900
C1011       C  0.29785019  0.86766506  0.75951726     0.36400
C1012       C  0.31365220  0.92350890  0.66167786     0.40000
C1013       C  0.29480426  0.83616574  0.70887947     0.39100
C1014       C  0.27649630  0.94451123  0.70085561     0.36100
C1015       C  0.27738340  0.92832931  0.78689175     0.36800
C1016       C  0.19421848  0.86722941  0.73667664     0.40000
N1017       N  0.28923926  0.81376945  0.71013313    -0.38100
N1018       N  0.30427653  0.86014355  0.78128211    -0.39700
N1019       N  0.31901151  0.93738359  0.64314046    -0.37400
N1020       N  0.26660583  0.96527845  0.69729288    -0.39800
N1021       N  0.22004001  0.90559763  0.68338206    -0.39600
N1022       N  0.17663938  0.85836845  0.72377811    -0.37200
N1023       N  0.22745487  0.92026382  0.84011149    -0.38200
N1024       N  0.29388709  0.94171194  0.79667022    -0.39900
C1025       C  0.30251631  0.64690419  0.74711643    -0.04800
C1026       C  0.27664319  0.65844296  0.74291026     0.09300
C1027       C  0.27298954  0.68290749  0.75598056    -0.02200
C1028       C  0.29505613  0.70000648  0.75696920    -0.00500
C1029       C  0.31893621  0.68964784  0.76870069    -0.04100
C1030       C  0.32290574  0.66132850  0.76250775     0.02900
C1031       C  0.26034509  0.65518706  0.71654921     0.09800
C1032       C  0.24826513  0.68950554  0.76967861     0.35600
C1033       C  0.34791407  0.64746372  0.76842368     0.39100
C1034       C  0.23260064  0.64999781  0.71697185    -0.04500
C1035       C  0.21530028  0.66164889  0.69634937     0.02700
C1036       C  0.22441208  0.68395330  0.67987174    -0.04100
C1037       C  0.25338498  0.68268189  0.67497211    -0.00300
C1038       C  0.27035293  0.66663010  0.69213404    -0.02900
C1039       C  0.22236923  0.63191283  0.73806055     0.36400
C1040       C  0.26750616  0.69706285  0.65314752     0.40000
C1041       C  0.18922197  0.64941088  0.69179000     0.39100
C1042       C  0.29824704  0.66190741  0.68478760     0.36100
C1043       C  0.30769280  0.62043152  0.73634346     0.36800
C1044       C  0.29946697  0.71154314  0.72997652     0.40000
N1045       N  0.16881438  0.63854229  0.68878331    -0.38100
N1046       N  0.21437456  0.61748648  0.75506186    -0.39700
N1047       N  0.28019074  0.70823205  0.63657240    -0.37400
N1048       N  0.32017425  0.65781477  0.67807652    -0.39800
N1049       N  0.22871911  0.69454693  0.78144790    -0.39600
N1050       N  0.30319631  0.71902783  0.70762180    -0.37200
N1051       N  0.36766002  0.63571223  0.77249374    -0.38200
N1052       N  0.31186322  0.59922008  0.72783005    -0.39900
C1053       C  0.30069998  0.75587545  0.84286734    -0.04800
C1054       C  0.27980401  0.76646357  0.82605013     0.09300
C1055       C  0.27895246  0.75814356  0.79876789    -0.02200
C1056       C  0.30179653  0.74736181  0.78671987    -0.00500
C1057       C  0.32022455  0.73118180  0.80222031    -0.04100
C1058       C  0.31985119  0.73710195  0.83171862     0.02900
C1059       C  0.26260704  0.79066131  0.83303343     0.09800
C1060       C  0.25476095  0.76128247  0.78258762     0.35600
C1061       C  0.34004772  0.72709536  0.85087718     0.39100
C1062       C  0.27322107  0.81658158  0.82938821    -0.04500
C1063       C  0.25611690  0.83905015  0.82387843     0.02700
C1064       C  0.22756239  0.83558250  0.81977882    -0.04100
C1065       C  0.21743064  0.81063706  0.83122910    -0.00300
C1066       C  0.23467329  0.78838255  0.83666528    -0.02900
C1067       C  0.30211570  0.82010807  0.83227764     0.36400
C1068       C  0.18937641  0.80778080  0.83879890     0.40000
C1069       C  0.26820455  0.86481090  0.82901311     0.39100
C1070       C  0.22371005  0.76286771  0.84585601     0.36100
C1071       C  0.30178967  0.76354087  0.87173739     0.36800
C1072       C  0.30862757  0.75947583  0.76066485     0.40000
N1073       N  0.28019416  0.88389207  0.83488890    -0.38100
N1074       N  0.32508246  0.82291385  0.83524773    -0.39700
N1075       N  0.16740123  0.80481415  0.84608552    -0.37400
N1076       N  0.21490175  0.74262453  0.85350315    -0.39800
N1077       N  0.23465219  0.76271565  0.77063514    -0.39600
N1078       N  0.31295242  0.77053263  0.74009839    -0.37200
N1079       N  0.35578379  0.71967610  0.86699624    -0.38200
N1080       N  0.30266125  0.76950613  0.89484902    -0.39900
C1081       C  0.36394874  0.74473246  0.71813716    -0.04800
C1082       C  0.37299975  0.76956472  0.72872661     0.09300
C1083       C  0.38221118  0.76909575  0.75651923    -0.02200
C1084       C  0.37242460  0.74935913  0.77542241    -0.00500
C1085       C  0.35718022  0.72688177  0.76569177    -0.04100
C1086       C  0.35894141  0.72280223  0.73647386     0.02900
C1087       C  0.36908941  0.79631427  0.71319231     0.09800
C1088       C  0.40123737  0.78936130  0.76564994     0.35600
C1089       C  0.36036341  0.69609313  0.72518656     0.39100
C1090       C  0.35707202  0.81830592  0.72679216    -0.04500
C1091       C  0.35298409  0.84284644  0.71268242     0.02700
C1092       C  0.35176133  0.84359427  0.68303142    -0.04100
C1093       C  0.37100447  0.82572470  0.67156632    -0.00300
C1094       C  0.37872167  0.80163707  0.68601459    -0.02900
C1095       C  0.34867126  0.81638154  0.75546546     0.36400
C1096       C  0.38938679  0.83611436  0.65101545     0.40000
C1097       C  0.35396068  0.86673166  0.72956018     0.39100
C1098       C  0.39878663  0.78420767  0.67406978     0.36100
C1099       C  0.35939779  0.74122064  0.68871575     0.36800
C1100       C  0.37972399  0.75193913  0.80433629     0.40000
N1101       N  0.35485392  0.88446490  0.74487972    -0.38100
N1102       N  0.34230165  0.81460596  0.77841754    -0.39700
N1103       N  0.40488732  0.84423939  0.63522272    -0.37400
N1104       N  0.41478423  0.77041873  0.66425700    -0.39800
N1105       N  0.41644701  0.80546147  0.77295689    -0.39600
N1106       N  0.38703300  0.75487119  0.82692068    -0.37200
N1107       N  0.36289994  0.67526912  0.71515824    -0.38200
N1108       N  0.35563961  0.73789659  0.66528894    -0.39900
C1109       C  0.85525161  0.16061458  0.84788015    -0.04800
C1110       C  0.88040699  0.15293972  0.83765092     0.09300
C1111       C  0.88578816  0.15687096  0.80948330    -0.02200
C1112       C  0.86623474  0.16882583  0.79195987    -0.00500
C1113       C  0.84411157  0.18355006  0.80307321    -0.04100
C1114       C  0.83659631  0.17442521  0.83056742     0.02900
C1115       C  0.89916689  0.13642180  0.85524296     0.09800
C1116       C  0.91032709  0.14585137  0.79792395     0.35600
C1117       C  0.80926833  0.17573311  0.84102004     0.39100
C1118       C  0.89533116  0.10840244  0.85757029    -0.04500
C1119       C  0.91267587  0.09275168  0.87440096     0.02700
C1120       C  0.93421198  0.10498684  0.88881835    -0.04100
C1121       C  0.93842444  0.13302971  0.88582504    -0.00300
C1122       C  0.92087699  0.14863753  0.86916299    -0.02900
C1123       C  0.87358564  0.09566950  0.84236927     0.36400
C1124       C  0.96146731  0.14580921  0.89884358     0.40000
C1125       C  0.90785661  0.06415359  0.87740706     0.39100
C1126       C  0.92532413  0.17726981  0.86593447     0.36100
C1127       C  0.84830055  0.15344941  0.87623683     0.36800
C1128       C  0.86450626  0.15688006  0.76484542     0.40000
N1129       N  0.90401864  0.04134294  0.87982521    -0.38100
N1130       N  0.85629253  0.08553579  0.83014239    -0.39700
N1131       N  0.97988806  0.15603678  0.90910431    -0.37400
N1132       N  0.92888874  0.20009319  0.86322806    -0.39800
N1133       N  0.92992155  0.13707145  0.78885590    -0.39600
N1134       N  0.86389146  0.14458299  0.74461564    -0.37200
N1135       N  0.78801074  0.17597162  0.85074085    -0.38200
N1136       N  0.84285047  0.14756725  0.89878145    -0.39900
C1137       C  0.74055939  0.20746695  0.70180059    -0.04800
C1138       C  0.75178545  0.18184691  0.69970483     0.09300
C1139       C  0.74681660  0.16813157  0.67464665    -0.02200
C1140       C  0.73142987  0.18102576  0.65305174    -0.00500
C1141       C  0.72483649  0.20932905  0.65532341    -0.04100
C1142       C  0.73809094  0.22196196  0.67729707     0.02900
C1143       C  0.77661864  0.17696069  0.71683621     0.09800
C1144       C  0.75840890  0.14180126  0.67089517     0.35600
C1145       C  0.76350591  0.23389823  0.66968590     0.39100
C1146       C  0.77717009  0.16187020  0.74139012    -0.04500
C1147       C  0.79809678  0.16650890  0.76116555     0.02700
C1148       C  0.81505845  0.18976797  0.75840013    -0.04100
C1149       C  0.82025384  0.19565277  0.72951396    -0.00300
C1150       C  0.80029012  0.19014040  0.70925158    -0.02900
C1151       C  0.75705439  0.14122160  0.74562869     0.36400
C1152       C  0.84693641  0.19319895  0.71801999     0.40000
C1153       C  0.80234038  0.14653211  0.78272585     0.39100
C1154       C  0.80654112  0.19137659  0.67979617     0.36100
C1155       C  0.74183354  0.22207768  0.72713325     0.36800
C1156       C  0.72580710  0.16583416  0.62828612     0.40000
N1157       N  0.80550819  0.12960507  0.79901475    -0.38100
N1158       N  0.74103418  0.12466166  0.74907193    -0.39700
N1159       N  0.86707867  0.18970578  0.70660770    -0.37400
N1160       N  0.81203952  0.19152087  0.65650990    -0.39800
N1161       N  0.76790133  0.12082591  0.66804538    -0.39600
N1162       N  0.72193439  0.15341879  0.60852469    -0.37200
N1163       N  0.78412364  0.24280796  0.66334680    -0.38200
N1164       N  0.74281326  0.23435779  0.74718688    -0.39900
C1165       C  0.75850146  0.33540436  0.62372987    -0.04800
C1166       C  0.76848465  0.31560936  0.60538730     0.09300
C1167       C  0.79353536  0.32152941  0.59285134    -0.02200
C1168       C  0.81014324  0.34244407  0.60368343    -0.00500
C1169       C  0.80345777  0.35436909  0.62959436    -0.04100
C1170       C  0.77491859  0.35756262  0.63070163     0.02900
C1171       C  0.75288679  0.28985358  0.59925148     0.09800
C1172       C  0.79947933  0.30993016  0.56612845     0.35600
C1173       C  0.76391329  0.38139732  0.61747635     0.39100
C1174       C  0.72494182  0.28990446  0.59346935    -0.04500
C1175       C  0.70851165  0.26828096  0.60285898     0.02700
C1176       C  0.72050695  0.24501165  0.61538071    -0.04100
C1177       C  0.74850170  0.24174175  0.60953567    -0.00300
C1178       C  0.76486216  0.26446505  0.60387028    -0.02900
C1179       C  0.71347547  0.31179847  0.57738262     0.36400
C1180       C  0.76065901  0.21550571  0.60713994     0.40000
C1181       C  0.67956428  0.27016550  0.59961795     0.39100
C1182       C  0.79392865  0.26174181  0.60508010     0.36100
C1183       C  0.73023099  0.33674413  0.63100138     0.36800
C1184       C  0.82269669  0.35950436  0.58294230     0.40000
N1185       N  0.65650679  0.27183429  0.59646827    -0.38100
N1186       N  0.70442113  0.32913743  0.56422279    -0.39700
N1187       N  0.77166088  0.19529096  0.60416507    -0.37400
N1188       N  0.81709862  0.25940957  0.60624160    -0.39800
N1189       N  0.80389981  0.30095174  0.54459611    -0.39600
N1190       N  0.83210758  0.37311670  0.56599834    -0.37200
N1191       N  0.75435069  0.39952332  0.60592171    -0.38200
N1192       N  0.70758293  0.33846532  0.63621904    -0.39900
C1193       C  0.82183318  0.29429833  0.69800778    -0.04800
C1194       C  0.84819205  0.29002623  0.70776263     0.09300
C1195       C  0.86822851  0.30816442  0.69910929    -0.02200
C1196       C  0.86228856  0.32974387  0.68025240    -0.00500
C1197       C  0.83490352  0.33513025  0.67060716    -0.04100
C1198       C  0.81502228  0.31719068  0.68165083     0.02900
C1199       C  0.85247443  0.27079957  0.73228444     0.09800
C1200       C  0.89449000  0.30660115  0.71250469     0.35600
C1201       C  0.78719850  0.32529088  0.68223727     0.39100
C1202       C  0.86913469  0.24795044  0.73192465    -0.04500
C1203       C  0.86821885  0.22908281  0.75459854     0.02700
C1204       C  0.84695804  0.23065355  0.77434935    -0.04100
C1205       C  0.84205522  0.25849052  0.78028428    -0.00300
C1206       C  0.84276591  0.27793665  0.75840806    -0.02900
C1207       C  0.88812451  0.24478672  0.70954115     0.36400
C1208       C  0.85328706  0.26900842  0.80574931     0.40000
C1209       C  0.89142011  0.21222453  0.75934486     0.39100
C1210       C  0.84324932  0.30645269  0.76436734     0.36100
C1211       C  0.80076205  0.27731522  0.70915349     0.36800
C1212       C  0.88468950  0.34783785  0.67498592     0.40000
N1213       N  0.91090029  0.19975243  0.76220190    -0.38100
N1214       N  0.90343309  0.24242097  0.69173657    -0.39700
N1215       N  0.86294473  0.27879708  0.82509470    -0.37400
N1216       N  0.84515111  0.32917422  0.76869646    -0.39800
N1217       N  0.91523332  0.30555035  0.72352210    -0.39600
N1218       N  0.90317215  0.36166675  0.67163205    -0.37200
N1219       N  0.76522394  0.33241617  0.68480130    -0.38200
N1220       N  0.78427978  0.26441406  0.71955782    -0.39900
C1221       C  0.88513854  0.37846938  0.60366600    -0.04800
C1222       C  0.88847975  0.40627300  0.60640659     0.09300
C1223       C  0.87514262  0.41936812  0.62797169    -0.02200
C1224       C  0.85677701  0.40540138  0.64538895    -0.00500
C1225       C  0.84957516  0.37779531  0.64018503    -0.04100
C1226       C  0.86658375  0.36421719  0.62052181     0.02900
C1227       C  0.90740606  0.42168472  0.58771105     0.09800
C1228       C  0.88135399  0.44745551  0.63292769     0.35600
C1229       C  0.86620003  0.33510016  0.61777967     0.39100
C1230       C  0.89718337  0.43804520  0.56595424    -0.04500
C1231       C  0.91491907  0.45309159  0.54891368     0.02700
C1232       C  0.94295977  0.45252140  0.55401892    -0.01300
C1233       C  0.95314648  0.43620865  0.57574823    -0.00300
C1234       C  0.93552800  0.42062246  0.59226955    -0.02900
C1235       C  0.86834504  0.43945913  0.56124355     0.36400
C1236       C  0.98192691  0.43546024  0.58104585     0.40000
C1237       C  0.90428684  0.46924182  0.52622985     0.39100
C1238       C  0.94636315  0.40344246  0.61402082     0.36100
C1239       C  0.90093665  0.36438047  0.58317543     0.36800
C1240       C  0.84842277  0.41987840  0.66976361     0.40000
N1241       N  0.89569009  0.48205677  0.50811238    -0.38100
N1242       N  0.84531249  0.44065548  0.55763774    -0.39700
N1243       N  0.00490773  0.43504640  0.58515526    -0.37400
N1244       N  0.95504788  0.38950956  0.63117835    -0.39800
N1245       N  0.88642032  0.46974847  0.63699685    -0.39600
N1246       N  0.84271211  0.43252039  0.68887342    -0.37200
N1247       N  0.86623303  0.31200052  0.61542072    -0.38200
N1248       N  0.91367880  0.35313531  0.56699048    -0.39900
C1249       C  0.65167918  0.31863884  0.73061004    -0.04800
C1250       C  0.65893901  0.29146911  0.72911311     0.09300
C1251       C  0.66539213  0.27798476  0.75389808    -0.02200
C1252       C  0.66956779  0.29246926  0.77878209    -0.00500
C1253       C  0.67130702  0.32126604  0.77814097    -0.04100
C1254       C  0.65767962  0.33353406  0.75478087     0.02900
C1255       C  0.66579600  0.27883081  0.70170772     0.09800
C1256       C  0.66842896  0.24905456  0.75339211     0.35600
C1257       C  0.64970469  0.36148445  0.75499995     0.39100
C1258       C  0.68935096  0.28696829  0.68863681    -0.04500
C1259       C  0.70174638  0.27030933  0.66902454     0.02700
C1260       C  0.68847076  0.24713850  0.65726677    -0.04100
C1261       C  0.66045488  0.24525369  0.66510510    -0.00300
C1262       C  0.65081951  0.25813463  0.68944503    -0.02900
C1263       C  0.70053974  0.31322002  0.69499334     0.36400
C1264       C  0.64001522  0.23437906  0.64696553     0.40000
C1265       C  0.72838433  0.27866261  0.66200441     0.39100
C1266       C  0.62481281  0.25125688  0.70098564     0.36100
C1267       C  0.63985072  0.33158949  0.70638858     0.36800
C1268       C  0.66526892  0.27748774  0.80404881     0.40000
N1269       N  0.74984568  0.28669813  0.65851566    -0.38100
N1270       N  0.70829006  0.33471323  0.69911753    -0.39700
N1271       N  0.62292508  0.22625176  0.63296360    -0.37400
N1272       N  0.60418653  0.24576913  0.71054756    -0.39800
N1273       N  0.67066548  0.22598025  0.75229500    -0.39600
N1274       N  0.65998687  0.26407700  0.82298558    -0.37200
N1275       N  0.64221326  0.38345917  0.75427829    -0.38200
N1276       N  0.63045544  0.34187433  0.68702702    -0.39900
C1277       C  0.72336123  0.28243213  0.84244528    -0.04800
C1278       C  0.74953343  0.28297818  0.83066317     0.09300
C1279       C  0.75866588  0.30803946  0.82104747    -0.02200
C1280       C  0.74021614  0.32912458  0.81633786    -0.00500
C1281       C  0.71153459  0.32406939  0.81741833    -0.04100
C1282       C  0.70506756  0.30411263  0.83735338     0.02900
C1283       C  0.76680141  0.25807895  0.82624355     0.09800
C1284       C  0.78709037  0.31270012  0.81680726     0.35600
C1285       C  0.68193232  0.30780965  0.85502666     0.39100
C1286       C  0.75783496  0.23769769  0.80864076    -0.04500
C1287       C  0.77574530  0.21752903  0.79905394     0.02700
C1288       C  0.80436773  0.21937029  0.80378403    -0.04100
C1289       C  0.81073235  0.23500718  0.82807151    -0.00300
C1290       C  0.79249935  0.25468443  0.83831722    -0.02900
C1291       C  0.72906489  0.23472433  0.80414520     0.36400
C1292       C  0.83517248  0.23021293  0.84409933     0.40000
C1293       C  0.76255285  0.19188247  0.79645797     0.39100
C1294       C  0.79967789  0.27069645  0.86219311     0.36100
C1295       C  0.71560272  0.26014580  0.86009596     0.36800
C1296       C  0.75150619  0.35573804  0.81175150     0.40000
N1297       N  0.74967570  0.17250189  0.79691039    -0.38100
N1298       N  0.70627221  0.23103829  0.80110681    -0.39700
N1299       N  0.85440235  0.22674998  0.85735609    -0.37400
N1300       N  0.80537233  0.28345285  0.88127354    -0.39800
N1301       N  0.80979925  0.31718328  0.81456839    -0.39600
N1302       N  0.76084545  0.37685544  0.80880933    -0.37200
N1303       N  0.66379761  0.31095102  0.86960279    -0.38200
N1304       N  0.70931551  0.24215919  0.87396442    -0.39900
C1305       C  0.72932397  0.39431171  0.75150768    -0.04800
C1306       C  0.74913921  0.37750802  0.73990409     0.09300
C1307       C  0.74779224  0.35013363  0.74637397    -0.02200
C1308       C  0.72529996  0.33886988  0.75929797    -0.00500
C1309       C  0.70739661  0.35514623  0.77538758    -0.04100
C1310       C  0.70940175  0.38365629  0.77019064     0.02900
C1311       C  0.77154265  0.38709645  0.72077128     0.09800
C1312       C  0.77156510  0.33371814  0.74493846     0.35600
C1313       C  0.69160856  0.40275621  0.78294208     0.39100
C1314       C  0.79875398  0.38304666  0.72822262    -0.04500
C1315       C  0.81818316  0.37796186  0.70740293     0.02700
C1316       C  0.81078314  0.37937698  0.67852297    -0.04100
C1317       C  0.78777196  0.39555778  0.67366638    -0.00300
C1318       C  0.76656559  0.39575594  0.69323867    -0.02900
C1319       C  0.80648162  0.38324398  0.75727703     0.36400
C1320       C  0.78956986  0.41728978  0.65369304     0.40000
C1321       C  0.84585096  0.37506251  0.71642908     0.39100
C1322       C  0.73991134  0.40389876  0.68449838     0.36100
C1323       C  0.73099848  0.42293054  0.74619758     0.36800
C1324       C  0.72455608  0.30968946  0.75972788     0.40000
N1325       N  0.86746821  0.37394770  0.72547646    -0.38100
N1326       N  0.81318066  0.38353221  0.78028565    -0.39700
N1327       N  0.79142922  0.43501376  0.63813270    -0.37400
N1328       N  0.71853929  0.41028317  0.67741426    -0.39800
N1329       N  0.79043798  0.32037319  0.74597242    -0.39600
N1330       N  0.72573133  0.28654332  0.75981492    -0.37200
N1331       N  0.67789303  0.41921040  0.79202502    -0.38200
N1332       N  0.73238336  0.44576595  0.74186369    -0.39900
C1333       C  0.65448487  0.15675769  0.31752455    -0.04800
C1334       C  0.64165068  0.16485479  0.34174191     0.09300
C1335       C  0.63944851  0.19221111  0.34727286    -0.02200
C1336       C  0.65073393  0.21166089  0.32917700    -0.00500
C1337       C  0.66741734  0.20410820  0.30607446    -0.04100
C1338       C  0.66500320  0.17600027  0.29870227     0.02900
C1339       C  0.62637434  0.14509516  0.35927073     0.09800
C1340       C  0.62485794  0.20038728  0.37191924     0.35600
C1341       C  0.66966919  0.16598455  0.27094542     0.39100
C1342       C  0.63944554  0.13035880  0.38038948    -0.04500
C1343       C  0.62450635  0.11324131  0.39811732     0.02700
C1344       C  0.59605072  0.11091828  0.39502343    -0.04100
C1345       C  0.58305961  0.12649571  0.37405667    -0.00300
C1346       C  0.59823636  0.14291603  0.35597186    -0.02900
C1347       C  0.66840123  0.13286480  0.38374641     0.36400
C1348       C  0.55393019  0.12668474  0.37145727     0.40000
C1349       C  0.63888743  0.09779247  0.41906312     0.39100
C1350       C  0.58492141  0.15791271  0.33386008     0.36100
C1351       C  0.65623299  0.12827505  0.31157318     0.36800
C1352       C  0.64136397  0.23853974  0.33413968     0.40000
N1353       N  0.65056479  0.08558287  0.43573796    -0.38100
N1354       N  0.69150462  0.13487471  0.38627706    -0.39700
N1355       N  0.53071438  0.12715373  0.36921215    -0.37400
N1356       N  0.57460649  0.16996072  0.31613989    -0.39800
N1357       N  0.61316945  0.20684988  0.39142710    -0.39600
N1358       N  0.63085680  0.25836478  0.34016938    -0.37200
N1359       N  0.67286218  0.15698583  0.24916403    -0.38200
N1360       N  0.65795291  0.10561554  0.30688501    -0.39900
C1361       C  0.65522243  0.89487581  0.63040204    -0.04800
C1362       C  0.65023171  0.89550981  0.60183166     0.09300
C1363       C  0.65929592  0.87421633  0.58567396    -0.02200
C1364       C  0.67457493  0.85287941  0.59752280    -0.00500
C1365       C  0.68297350  0.85308085  0.62644733    -0.04100
C1366       C  0.66950322  0.87322010  0.64285371     0.02900
C1367       C  0.63313891  0.91727613  0.58877729     0.09800
C1368       C  0.65150189  0.87375617  0.55652581     0.35600
C1369       C  0.66784189  0.87139311  0.67291402     0.39100
C1370       C  0.64531205  0.93870990  0.57425813    -0.04500
C1371       C  0.62933464  0.95780332  0.55978626     0.02700
C1372       C  0.60081492  0.95540016  0.55919064    -0.04100
C1373       C  0.58870717  0.93426493  0.57456432    -0.00300
C1374       C  0.60477205  0.91533903  0.58916166    -0.02900
C1375       C  0.67445902  0.94074901  0.57387509     0.36400
C1376       C  0.55968044  0.93125805  0.57472158     0.40000
C1377       C  0.64248697  0.98032813  0.54626553     0.39100
C1378       C  0.59209274  0.89326123  0.60392995     0.36100
C1379       C  0.64542441  0.91681018  0.64719394     0.36800
C1380       C  0.67727379  0.82991745  0.57953822     0.40000
N1381       N  0.65320914  0.99826897  0.53564091    -0.38100
N1382       N  0.69772034  0.94215771  0.57355328    -0.39700
N1383       N  0.53650663  0.92888878  0.57502017    -0.37400
N1384       N  0.58187710  0.87567662  0.61566717    -0.39800
N1385       N  0.64507230  0.87335595  0.53343744    -0.39600
N1386       N  0.67847337  0.81244281  0.56393483    -0.37200
N1387       N  0.66576968  0.87070082  0.69679299    -0.38200
N1388       N  0.63782807  0.93441056  0.66051587    -0.39900
C1389       C  0.60070433  0.90383120  0.38126022    -0.04800
C1390       C  0.62782866  0.90930835  0.37422407     0.09300
C1391       C  0.63993498  0.93317914  0.38398893    -0.02200
C1392       C  0.62484959  0.95184155  0.39929629    -0.00500
C1393       C  0.59733116  0.94710253  0.40485531    -0.04100
C1394       C  0.58549042  0.92271390  0.39634404     0.02900
C1395       C  0.64344750  0.89058060  0.35574175     0.09800
C1396       C  0.66801534  0.93886289  0.37833812     0.35600
C1397       C  0.55798193  0.91655323  0.40411579     0.39100
C1398       C  0.63734173  0.88906989  0.32741965    -0.04500
C1399       C  0.65360065  0.87393180  0.30915646     0.02700
C1400       C  0.67645211  0.85847162  0.31882159    -0.04100
C1401       C  0.68122390  0.85944474  0.34857203    -0.00300
C1402       C  0.66493136  0.87530616  0.36626501    -0.02900
C1403       C  0.61378290  0.90337299  0.31691697     0.36400
C1404       C  0.70281204  0.84528219  0.36272475     0.40000
C1405       C  0.64529249  0.87511260  0.28044704     0.39100
C1406       C  0.67024876  0.87606335  0.39596198     0.36100
C1407       C  0.58849617  0.87865572  0.37307723     0.36800
C1408       C  0.63762289  0.97642427  0.40859193     0.40000
N1409       N  0.63544151  0.87781305  0.25882281    -0.38100
N1410       N  0.59477578  0.91431578  0.30865991    -0.39700
N1411       N  0.71930112  0.83429506  0.37555193    -0.37400
N1412       N  0.67451354  0.87685438  0.41955184    -0.39800
N1413       N  0.69047285  0.94385337  0.37461763    -0.39600
N1414       N  0.64778613  0.99596956  0.41614143    -0.37200
N1415       N  0.53614186  0.91149277  0.41060546    -0.38200
N1416       N  0.57872661  0.85859667  0.36647701    -0.39900
C1417       C  0.38912238  0.90668327  0.63533906    -0.04800
C1418       C  0.38502026  0.90615684  0.60661249     0.09300
C1419       C  0.36133931  0.89443919  0.59629058    -0.02200
C1420       C  0.34230307  0.88225106  0.61441700    -0.00500
C1421       C  0.34729854  0.88016632  0.64391644    -0.04100
C1422       C  0.36984714  0.89556451  0.65372456     0.02900
C1423       C  0.40358318  0.92182347  0.58776372     0.09800
C1424       C  0.35634066  0.89555560  0.56658875     0.35600
C1425       C  0.37212896  0.90422846  0.68205236     0.39100
C1426       C  0.42789134  0.91060242  0.57810172    -0.04500
C1427       C  0.44588998  0.92622773  0.56190551     0.02700
C1428       C  0.43975821  0.95320893  0.55527734    -0.04100
C1429       C  0.41533841  0.96431527  0.56474895    -0.00300
C1430       C  0.39727952  0.94866543  0.58064453    -0.02900
C1431       C  0.43421673  0.88282248  0.58430596     0.36400
C1432       C  0.40910975  0.99223080  0.55880066     0.40000
C1433       C  0.47030694  0.91424481  0.55136937     0.39100
C1434       C  0.37202673  0.96019994  0.58962077     0.36100
C1435       C  0.41333243  0.91940113  0.64612880     0.36800
C1436       C  0.31679475  0.87509111  0.60175178     0.40000
N1437       N  0.48961733  0.90438428  0.54286416    -0.38100
N1438       N  0.43963369  0.86062698  0.58879770    -0.39700
N1439       N  0.40429442  0.01453895  0.55413258    -0.37400
N1440       N  0.35177543  0.96936345  0.59652563    -0.39800
N1441       N  0.35240101  0.89657921  0.54293641    -0.39600
N1442       N  0.29703169  0.86984915  0.59013744    -0.37200
N1443       N  0.37567516  0.91454520  0.70312421    -0.38200
N1444       N  0.43271007  0.92933046  0.65468413    -0.39900
C1445       C  0.64068750  0.12230348  0.57425984    -0.04800
C1446       C  0.63019762  0.14662441  0.58429650     0.09300
C1447       C  0.60261523  0.15246845  0.58029398    -0.02200
C1448       C  0.58564095  0.13415220  0.56632486    -0.00500
C1449       C  0.59644044  0.11044191  0.55506283    -0.04100
C1450       C  0.62407606  0.10458265  0.55924348     0.02900
C1451       C  0.64866382  0.16685497  0.59738220     0.09800
C1452       C  0.59189467  0.17782788  0.58962234     0.35600
C1453       C  0.63559740  0.08017724  0.54821678     0.39100
C1454       C  0.66318446  0.18471923  0.58054882    -0.04500
C1455       C  0.68197832  0.20290436  0.59215696     0.02700
C1456       C  0.68460886  0.20577881  0.62186793    -0.04100
C1457       C  0.66990569  0.18641413  0.63845465    -0.00300
C1458       C  0.65251211  0.16729920  0.62617533    -0.02900
C1459       C  0.65917193  0.18370023  0.55066018     0.36400
C1460       C  0.67238153  0.18567360  0.66853650     0.40000
C1461       C  0.69971614  0.21577925  0.57229842     0.39100
C1462       C  0.63838892  0.14776395  0.64324617     0.36100
C1463       C  0.66870130  0.11546041  0.57913695     0.36800
C1464       C  0.55732648  0.14034955  0.56253311     0.40000
N1465       N  0.71342862  0.22530161  0.55553037    -0.38100
N1466       N  0.65588660  0.18284488  0.52691436    -0.39700
N1467       N  0.67415943  0.18481719  0.69246652    -0.37400
N1468       N  0.62712113  0.13207530  0.65669788    -0.39800
N1469       N  0.58314669  0.19812134  0.59671604    -0.39600
N1470       N  0.53473243  0.14538880  0.55964398    -0.37200
N1471       N  0.64484855  0.06086736  0.53917550    -0.38200
N1472       N  0.69090778  0.10934242  0.58284372    -0.39900
C1473       C  0.37539691  0.91284771  0.32220116    -0.04800
C1474       C  0.38973139  0.90057822  0.34383878     0.09300
C1475       C  0.38797304  0.87283261  0.34738085    -0.02200
C1476       C  0.37260407  0.85689512  0.32882646    -0.00500
C1477       C  0.35641642  0.86862213  0.30677079    -0.04100
C1478       C  0.36029802  0.89743455  0.30303064     0.02900
C1479       C  0.40788202  0.91708631  0.36208494     0.09800
C1480       C  0.40217183  0.86061157  0.37078876     0.35600
C1481       C  0.35217827  0.91246469  0.27845727     0.39100
C1482       C  0.39672285  0.93320960  0.38282795    -0.04500
C1483       C  0.41313814  0.95095807  0.39806414     0.02700
C1484       C  0.44147220  0.95190705  0.39371406    -0.04100
C1485       C  0.45262800  0.93537729  0.37287098    -0.00300
C1486       C  0.43590289  0.91801006  0.35731444    -0.02900
C1487       C  0.36804967  0.93161546  0.38829811     0.36400
C1488       C  0.48119594  0.93633027  0.36680507     0.40000
C1489       C  0.40014369  0.96937495  0.41686403     0.39100
C1490       C  0.44751477  0.90101880  0.33624623     0.36100
C1491       C  0.37678636  0.94195113  0.31940097     0.36800
C1492       C  0.37623990  0.82843642  0.33295276     0.40000
N1493       N  0.38963824  0.98418333  0.43163193    -0.38100
N1494       N  0.34519531  0.93023924  0.39264089    -0.39700
N1495       N  0.50388157  0.93718701  0.36147787    -0.37400
N1496       N  0.45679194  0.88730297  0.31960490    -0.39800
N1497       N  0.41331679  0.85087472  0.38945691    -0.39600
N1498       N  0.38255521  0.80681380  0.33904869    -0.37200
N1499       N  0.34629254  0.92579911  0.25958751    -0.38200
N1500       N  0.37772914  0.96509537  0.31748053    -0.39900
C1501       C  0.28240280  0.79623883  0.28844110    -0.04800
C1502       C  0.27055012  0.79807532  0.31441767     0.09300
C1503       C  0.28092489  0.81709241  0.33320693    -0.02200
C1504       C  0.30372788  0.83337278  0.32598672    -0.00500
C1505       C  0.31389462  0.83356825  0.29808653    -0.04100
C1506       C  0.30005521  0.81611591  0.27895017     0.02900
C1507       C  0.24570709  0.78119854  0.31931253     0.09800
C1508       C  0.26870137  0.81912919  0.36028696     0.35600
C1509       C  0.30639216  0.81536989  0.24963179     0.39100
C1510       C  0.24783589  0.75343944  0.32346279    -0.04500
C1511       C  0.22637497  0.73608676  0.31589984     0.02700
C1512       C  0.20233724  0.74598564  0.30205123    -0.04100
C1513       C  0.19868406  0.77465805  0.30462870    -0.00300
C1514       C  0.22037440  0.79172334  0.31260131    -0.02900
C1515       C  0.27282631  0.74269794  0.33466509     0.36400
C1516       C  0.17283144  0.78756168  0.30515337     0.40000
C1517       C  0.22930875  0.70816308  0.32394095     0.39100
C1518       C  0.21659925  0.82058304  0.31466272     0.36100
C1519       C  0.27786687  0.77265628  0.27183323     0.36800
C1520       C  0.31549541  0.84956714  0.34760395     0.40000
N1521       N  0.23285046  0.68643688  0.33180546    -0.38100
N1522       N  0.29267455  0.73406426  0.34370059    -0.39700
N1523       N  0.15373915  0.80053726  0.30792615    -0.37400
N1524       N  0.21355317  0.84352452  0.31641029    -0.39800
N1525       N  0.25884300  0.82087618  0.38186939    -0.39600
N1526       N  0.32404601  0.86220887  0.36565300    -0.37200
N1527       N  0.31161829  0.81394527  0.22640869    -0.38200
N1528       N  0.27561647  0.75319262  0.25931030    -0.39900
C1529       C  0.13700917  0.66566940  0.31085874    -0.04800
C1530       C  0.13859104  0.66767714  0.33965945     0.09300
C1531       C  0.15259183  0.68918344  0.35132633    -0.02200
C1532       C  0.16599552  0.70834400  0.33434830    -0.00500
C1533       C  0.16746934  0.70529794  0.30443427    -0.04100
C1534       C  0.15037940  0.68439882  0.29340046     0.02900
C1535       C  0.12293314  0.64862552  0.35773520     0.09800
C1536       C  0.15179259  0.69231959  0.38128136     0.35600
C1537       C  0.14549679  0.68064727  0.26415292     0.39100
C1538       C  0.13476607  0.62464820  0.36774901    -0.04500
C1539       C  0.11971531  0.60670623  0.38446120     0.02700
C1540       C  0.09306099  0.61308386  0.39195579    -0.04100
C1541       C  0.08143664  0.63735659  0.38234263    -0.00300
C1542       C  0.09608645  0.65469413  0.36474100    -0.02900
C1543       C  0.16250534  0.61861851  0.36104153     0.36400
C1544       C  0.05427879  0.64449185  0.39041219     0.40000
C1545       C  0.13198407  0.58220297  0.39486087     0.39100
C1546       C  0.08341451  0.67864344  0.35341165     0.36100
C1547       C  0.12121775  0.64387432  0.29909948     0.36800
C1548       C  0.17472721  0.73222032  0.34888507     0.40000
N1549       N  0.14183323  0.56272872  0.40331891    -0.38100
N1550       N  0.18469578  0.61383469  0.35583890    -0.39700
N1551       N  0.03272103  0.65031279  0.39706248    -0.37400
N1552       N  0.07323472  0.69760238  0.34413652    -0.39800
N1553       N  0.15086744  0.69487059  0.40507574    -0.39600
N1554       N  0.18114210  0.75072971  0.36168254    -0.37200
N1555       N  0.13893855  0.67490060  0.24192798    -0.38200
N1556       N  0.10869099  0.62655722  0.28972458    -0.39900
C1557       C  0.12794239  0.80674827  0.18504001    -0.04800
C1558       C  0.13937533  0.80045005  0.21143961     0.09300
C1559       C  0.16551447  0.80975327  0.21544558    -0.02200
C1560       C  0.18175414  0.81023640  0.19210021    -0.00500
C1561       C  0.17238080  0.82542060  0.16931814    -0.04100
C1562       C  0.14365645  0.82137687  0.16467951     0.02900
C1563       C  0.13357660  0.77468744  0.22692127     0.09800
C1564       C  0.17122802  0.82751785  0.23807785     0.35600
C1565       C  0.13110698  0.82755989  0.13828470     0.39100
C1566       C  0.14422459  0.75108049  0.21619893    -0.04500
C1567       C  0.16035687  0.73421353  0.23332458     0.02700
C1568       C  0.16181481  0.73851595  0.26321716    -0.04100
C1569       C  0.13950779  0.75401297  0.27281045    -0.00300
C1570       C  0.12811674  0.77439860  0.25538278    -0.02900
C1571       C  0.13895969  0.74476547  0.18734320     0.36400
C1572       C  0.12722900  0.74873451  0.29947701     0.40000
C1573       C  0.17358069  0.71249817  0.21882328     0.39100
C1574       C  0.10976117  0.79421977  0.26608249     0.36100
C1575       C  0.10085035  0.79778310  0.17899961     0.36800
C1576       C  0.18962351  0.78331436  0.18482265     0.40000
N1577       N  0.18356371  0.69548582  0.20633247    -0.38100
N1578       N  0.13466369  0.73950824  0.16442545    -0.39700
N1579       N  0.11657703  0.74480826  0.32040636    -0.37400
N1580       N  0.09501844  0.81005657  0.27460216    -0.39800
N1581       N  0.17579014  0.84210556  0.25602621    -0.39600
N1582       N  0.19548344  0.76161639  0.17913594    -0.37200
N1583       N  0.12102764  0.83149340  0.11695526    -0.38200
N1584       N  0.07920356  0.79039894  0.17435204    -0.39900
C1585       C  0.24144362  0.85480613  0.21443868    -0.04800
C1586       C  0.25279951  0.88000026  0.21158507     0.09300
C1587       C  0.24292256  0.89638772  0.18986428    -0.02200
C1588       C  0.22194814  0.88676335  0.17172843    -0.00500
C1589       C  0.21415614  0.85848061  0.17198908    -0.04100
C1590       C  0.22890886  0.84299899  0.19191584     0.02900
C1591       C  0.27801475  0.88530269  0.22841822     0.09800
C1592       C  0.25389104  0.92318162  0.18668252     0.35600
C1593       C  0.23729559  0.81585672  0.18780310     0.39100
C1594       C  0.30338796  0.87890684  0.21747144    -0.04500
C1595       C  0.32539843  0.87185790  0.23525126     0.02700
C1596       C  0.32167368  0.86928901  0.26464228    -0.04100
C1597       C  0.29836032  0.88351103  0.27469503    -0.00300
C1598       C  0.27646636  0.89015754  0.25691943    -0.02900
C1599       C  0.30684835  0.88041282  0.18765544     0.36400
C1600       C  0.29695498  0.89263734  0.30305995     0.40000
C1601       C  0.35179800  0.87406510  0.22327800     0.39100
C1602       C  0.25178147  0.90117544  0.26799673     0.36100
C1603       C  0.24327868  0.84023138  0.24021264     0.36800
C1604       C  0.21148814  0.90619006  0.15193813     0.40000
N1605       N  0.37192590  0.87813969  0.21198590    -0.38100
N1606       N  0.30941485  0.88205854  0.16386742    -0.39700
N1607       N  0.29534113  0.90143931  0.32509988    -0.37400
N1608       N  0.23209274  0.91002398  0.27677723    -0.39800
N1609       N  0.26265561  0.94456583  0.18400077    -0.39600
N1610       N  0.20384774  0.92245650  0.13651733    -0.37200
N1611       N  0.24484673  0.79403244  0.18714964    -0.38200
N1612       N  0.24312730  0.82912201  0.26123484    -0.39900
C1613       C  0.09514365  0.91482181  0.08819696    -0.04800
C1614       C  0.12183915  0.92320962  0.09346595     0.09300
C1615       C  0.13046473  0.94853146  0.08336980    -0.02200
C1616       C  0.11278823  0.96481827  0.06736606    -0.00500
C1617       C  0.08662184  0.95563728  0.06087878    -0.04100
C1618       C  0.07777099  0.93076289  0.07171749     0.02900
C1619       C  0.14115124  0.90431726  0.10787930     0.09800
C1620       C  0.15763864  0.95764436  0.08904764     0.35600
C1621       C  0.05056353  0.92159367  0.06617040     0.39100
C1622       C  0.15757597  0.88740744  0.09212702    -0.04500
C1623       C  0.17363890  0.86722250  0.10497527     0.02700
C1624       C  0.17533694  0.86488682  0.13474657    -0.04100
C1625       C  0.15815754  0.88255413  0.15023612    -0.00300
C1626       C  0.14129408  0.90164419  0.13685986    -0.02900
C1627       C  0.15718164  0.89043146  0.06211076     0.36400
C1628       C  0.15818698  0.88203380  0.18036497     0.40000
C1629       C  0.18613344  0.84833506  0.08640521     0.39100
C1630       C  0.12400083  0.91888944  0.15304454     0.36100
C1631       C  0.08541345  0.88967919  0.09970226     0.36800
C1632       C  0.12182276  0.99055208  0.05664243     0.40000
N1633       N  0.19560297  0.83378825  0.07063641    -0.38100
N1634       N  0.15681273  0.89307153  0.03825129    -0.39700
N1635       N  0.15816225  0.88213185  0.20434869    -0.37400
N1636       N  0.11017187  0.93260224  0.16592924    -0.39800
N1637       N  0.17931040  0.96512241  0.09340400    -0.39600
N1638       N  0.12895437  0.01107698  0.04797386    -0.37200
N1639       N  0.02888386  0.91416560  0.06183433    -0.38200
N1640       N  0.07709594  0.86986960  0.10896707    -0.39900
C1641       C  0.36755233  0.78041580  0.26028881    -0.04800
C1642       C  0.38329356  0.78886999  0.23788778     0.09300
C1643       C  0.39351615  0.81536046  0.23887149    -0.02200
C1644       C  0.38234333  0.83451438  0.25745688    -0.00500
C1645       C  0.35899298  0.82805217  0.27329869    -0.04100
C1646       C  0.35667203  0.79928322  0.27873964     0.02900
C1647       C  0.38414547  0.77186981  0.21192008     0.09800
C1648       C  0.41597291  0.82245625  0.22124242     0.35600
C1649       C  0.34397091  0.78755847  0.30322650     0.39100
C1650       C  0.37137246  0.78141635  0.18777398    -0.04500
C1651       C  0.36305122  0.76345117  0.16700605     0.02700
C1652       C  0.36287022  0.73478787  0.17251821    -0.04100
C1653       C  0.38421207  0.72697190  0.19067380    -0.00300
C1654       C  0.39370271  0.74507674  0.21142636    -0.02900
C1655       C  0.36478232  0.80959157  0.18452402     0.36400
C1656       C  0.39820289  0.70185354  0.18659976     0.40000
C1657       C  0.35354179  0.77601292  0.14144277     0.39100
C1658       C  0.41325088  0.73632483  0.23196881     0.36100
C1659       C  0.36269065  0.75211883  0.26526893     0.36800
C1660       C  0.39684490  0.85928284  0.26219184     0.40000
N1661       N  0.34578012  0.78761689  0.12207132    -0.38100
N1662       N  0.35909443  0.83173532  0.18038644    -0.39700
N1663       N  0.41003683  0.68210133  0.18362446    -0.37400
N1664       N  0.42877230  0.72925912  0.24846408    -0.39800
N1665       N  0.43405000  0.82791524  0.20723994    -0.39600
N1666       N  0.40903053  0.87879352  0.26564379    -0.37200
N1667       N  0.33432858  0.77719470  0.32233712    -0.38200
N1668       N  0.35879835  0.73001237  0.27143636    -0.39900
C1669       C  0.23942683  0.67582426  0.25169436    -0.04800
C1670       C  0.25124315  0.69310353  0.23208770     0.09300
C1671       C  0.23966238  0.71814230  0.22765243    -0.02200
C1672       C  0.22112468  0.72868717  0.24650820    -0.00500
C1673       C  0.20691950  0.71158511  0.26577272    -0.04100
C1674       C  0.21628824  0.68404580  0.26704074     0.02900
C1675       C  0.27685823  0.68691485  0.21661025     0.09800
C1676       C  0.24529681  0.73175573  0.20182652     0.35600
C1677       C  0.20427708  0.66365477  0.28452836     0.39100
C1678       C  0.27597999  0.67944604  0.18865988    -0.04500
C1679       C  0.29858597  0.68384995  0.17138282     0.02700
C1680       C  0.32226676  0.69758008  0.18140421    -0.04100
C1681       C  0.32496410  0.69722270  0.21102722    -0.00300
C1682       C  0.30196257  0.69374062  0.22814597    -0.02900
C1683       C  0.25117087  0.66853855  0.17737880     0.36400
C1684       C  0.35052239  0.69222437  0.22432470     0.40000
C1685       C  0.29754621  0.67255684  0.14386483     0.39100
C1686       C  0.30401794  0.69690943  0.25794147     0.36100
C1687       C  0.25072119  0.64918993  0.25530348     0.36800
C1688       C  0.21628671  0.75729675  0.24467054     0.40000
N1689       N  0.29600684  0.66193390  0.12268511    -0.38100
N1690       N  0.23139260  0.65985225  0.16835058    -0.39700
N1691       N  0.36982238  0.68601486  0.23633838    -0.37400
N1692       N  0.30527643  0.69935446  0.28174651    -0.39800
N1693       N  0.24939600  0.74000021  0.17983088    -0.39600
N1694       N  0.21327482  0.78025084  0.24344170    -0.37200
N1695       N  0.19601463  0.64624035  0.29808090    -0.38200
N1696       N  0.25974535  0.62794120  0.25816505    -0.39900
C1697       C  0.29155842  0.77388550  0.15122223    -0.04800
C1698       C  0.27849326  0.77090557  0.12578868     0.09300
C1699       C  0.28656940  0.74941040  0.10893087    -0.02200
C1700       C  0.30755434  0.73145510  0.11783273    -0.00500
C1701       C  0.31785653  0.73236645  0.14585055    -0.04100
C1702       C  0.30569893  0.75242069  0.16315825     0.02900
C1703       C  0.25468143  0.78905019  0.11946997     0.09800
C1704       C  0.27443610  0.74699137  0.08168801     0.35600
C1705       C  0.31069669  0.75408301  0.19280368     0.39100
C1706       C  0.25820335  0.81685092  0.11552772    -0.04500
C1707       C  0.23705738  0.83492740  0.12175308     0.02700
C1708       C  0.21178342  0.82530151  0.13220403    -0.04100
C1709       C  0.20653530  0.79766632  0.12663565    -0.00300
C1710       C  0.22810502  0.77948858  0.12232492    -0.02900
C1711       C  0.28404143  0.82684450  0.10602797     0.36400
C1712       C  0.17941986  0.78788960  0.12217880     0.40000
C1713       C  0.24130803  0.86301271  0.11535080     0.39100
C1714       C  0.22297431  0.75084577  0.12179694     0.36100
C1715       C  0.29464746  0.80037821  0.16284105     0.36800
C1716       C  0.31681273  0.71219110  0.09784355     0.40000
N1717       N  0.24584424  0.88490611  0.10866874    -0.38100
N1718       N  0.30467319  0.83490860  0.09863203    -0.39700
N1719       N  0.15843378  0.77871270  0.11773703    -0.37400
N1720       N  0.21891038  0.72797755  0.12151211    -0.39800
N1721       N  0.26460716  0.74518397  0.05997927    -0.39600
N1722       N  0.32341513  0.69727401  0.08093423    -0.37200
N1723       N  0.31507821  0.75602375  0.21626276    -0.38200
N1724       N  0.29742315  0.82195149  0.17094710    -0.39900
C1725       C  0.60466470  0.41813681  0.09609761    -0.04800
C1726       C  0.63191604  0.41523983  0.08858093     0.09300
C1727       C  0.64058382  0.42602133  0.06306006    -0.02200
C1728       C  0.62270195  0.44109660  0.04601272    -0.00500
C1729       C  0.59559207  0.44586724  0.05443287    -0.04100
C1730       C  0.58661098  0.43309649  0.07920298     0.02900
C1731       C  0.65152757  0.40098362  0.10772782     0.09800
C1732       C  0.66811148  0.42145858  0.05431713     0.35600
C1733       C  0.55865937  0.43471494  0.08759678     0.39100
C1734       C  0.65316178  0.37295741  0.10806553    -0.04500
C1735       C  0.66978307  0.35928635  0.12759979     0.02700
C1736       C  0.68653898  0.37351707  0.14716013    -0.04100
C1737       C  0.68461819  0.40247471  0.14590873    -0.00300
C1738       C  0.66767752  0.41562206  0.12615920    -0.02900
C1739       C  0.63750066  0.35805085  0.08781885     0.36400
C1740       C  0.69744471  0.41996377  0.16584014     0.40000
C1741       C  0.66831014  0.33029834  0.12697590     0.39100
C1742       C  0.66616664  0.44475469  0.12514573     0.36100
C1743       C  0.59487643  0.40559540  0.12133255     0.36800
C1744       C  0.63276746  0.45144991  0.01983965     0.40000
N1745       N  0.66554248  0.30742293  0.12424958    -0.38100
N1746       N  0.62516556  0.34621388  0.07157985    -0.39700
N1747       N  0.70701450  0.43508334  0.18110170    -0.37400
N1748       N  0.66495233  0.46793216  0.12423069    -0.39800
N1749       N  0.69002680  0.41773440  0.04729875    -0.39600
N1750       N  0.64102539  0.45951231  0.99896641    -0.37200
N1751       N  0.53646243  0.43571426  0.09469380    -0.38200
N1752       N  0.58614538  0.39569134  0.14111622    -0.39900
C1753       C  0.63751879  0.67469030  0.83439962    -0.04800
C1754       C  0.64977533  0.65396467  0.84949403     0.09300
C1755       C  0.67647944  0.64732328  0.84363852    -0.02200
C1756       C  0.69117459  0.66144053  0.82282059    -0.00500
C1757       C  0.67925685  0.68314398  0.80669759    -0.04100
C1758       C  0.65057998  0.68659716  0.81137057     0.02900
C1759       C  0.63277768  0.63621122  0.86786835     0.09800
C1760       C  0.68863614  0.62506274  0.85887507     0.35600
C1761       C  0.63198518  0.69720465  0.79070982     0.39100
C1762       C  0.61655377  0.61610611  0.85582442    -0.04500
C1763       C  0.59840620  0.60106987  0.87213162     0.02700
C1764       C  0.59620423  0.60586213  0.90091565    -0.04100
C1765       C  0.61346814  0.62510853  0.91324401    -0.00300
C1766       C  0.63191535  0.63993235  0.89680151    -0.02900
C1767       C  0.61917147  0.60995751  0.82666744     0.36400
C1768       C  0.61190136  0.63017313  0.94274092     0.40000
C1769       C  0.58296606  0.57975464  0.85920670     0.39100
C1770       C  0.65065915  0.65838222  0.90968086     0.36100
C1771       C  0.61025509  0.68259482  0.84160952     0.36800
C1772       C  0.71727486  0.65013900  0.81687026     0.40000
N1773       N  0.57073618  0.56274712  0.84886119    -0.38100
N1774       N  0.62086118  0.60410004  0.80360934    -0.39700
N1775       N  0.61064241  0.63426987  0.96627337    -0.37400
N1776       N  0.66600758  0.67271998  0.91997755    -0.39800
N1777       N  0.69822086  0.60732765  0.87102318    -0.39600
N1778       N  0.73693521  0.63819067  0.81346429    -0.37200
N1779       N  0.61614706  0.70486623  0.77480053    -0.38200
N1780       N  0.58867038  0.68902174  0.84753366    -0.39900
C1781       C  0.60394229  0.64850149  0.06971257    -0.04800
C1782       C  0.61964791  0.63838326  0.09193521     0.09300
C1783       C  0.61864782  0.61080012  0.09874912    -0.02200
C1784       C  0.60220406  0.59334944  0.08333548    -0.00500
C1785       C  0.58714495  0.60327013  0.06057599    -0.04100
C1786       C  0.58796509  0.63086356  0.05380105     0.02900
C1787       C  0.63821125  0.65624093  0.10796617     0.09800
C1788       C  0.63505669  0.60034349  0.12137893     0.35600
C1789       C  0.57228851  0.64101441  0.03052289     0.39100
C1790       C  0.63092333  0.66491020  0.13425527    -0.04500
C1791       C  0.65008888  0.67698791  0.15204772     0.02700
C1792       C  0.67700077  0.68422705  0.14250377    -0.04100
C1793       C  0.68381815  0.67355058  0.11567086    -0.00300
C1794       C  0.66450863  0.66031917  0.09881718    -0.02900
C1795       C  0.60351210  0.65984166  0.14355879     0.36400
C1796       C  0.71014796  0.67533313  0.10333257     0.40000
C1797       C  0.64124788  0.67894973  0.18063522     0.39100
C1798       C  0.67182081  0.65004183  0.07168352     0.36100
C1799       C  0.60423053  0.67697229  0.06331118     0.36800
C1800       C  0.60138550  0.56501598  0.09047885     0.40000
N1801       N  0.63294792  0.67987630  0.20299209    -0.38100
N1802       N  0.58174418  0.65566975  0.15089010    -0.39700
N1803       N  0.72909956  0.67483229  0.08949391    -0.37400
N1804       N  0.67763292  0.64185117  0.05016494    -0.39800
N1805       N  0.64823933  0.59216796  0.13941627    -0.39600
N1806       N  0.60079889  0.54244671  0.09630792    -0.37200
N1807       N  0.55974192  0.64898845  0.01191246    -0.38200
N1808       N  0.60428660  0.69970975  0.05821561    -0.39900
C1809       C  0.41315323  0.64983206  0.88762784    -0.04800
C1810       C  0.39770500  0.63812864  0.86617127     0.09300
C1811       C  0.39896236  0.61006324  0.86229512    -0.02200
C1812       C  0.41611955  0.59408803  0.87911545    -0.00500
C1813       C  0.43254782  0.60605985  0.89955851    -0.04100
C1814       C  0.43077507  0.63391879  0.90399824     0.02900
C1815       C  0.38271863  0.65577511  0.84574412     0.09800
C1816       C  0.38305058  0.59765146  0.84062085     0.35600
C1817       C  0.44756469  0.64630316  0.92498044     0.39100
C1818       C  0.39718252  0.66974044  0.82524329    -0.04500
C1819       C  0.38388096  0.68634682  0.80548837     0.02700
C1820       C  0.35517037  0.69064077  0.80671118    -0.04100
C1821       C  0.34077338  0.67437598  0.82657363    -0.00300
C1822       C  0.35451221  0.65790442  0.84616501    -0.02900
C1823       C  0.42622036  0.66606326  0.82393156     0.36400
C1824       C  0.31150568  0.67465849  0.82746624     0.40000
C1825       C  0.40040550  0.69562702  0.78263644     0.39100
C1826       C  0.33958363  0.64362355  0.86746385     0.36100
C1827       C  0.41110215  0.67838835  0.89261213     0.36800
C1828       C  0.41704898  0.56523624  0.87537373     0.40000
N1829       N  0.41452200  0.70239433  0.76486435    -0.38100
N1830       N  0.44929974  0.66304681  0.82299692    -0.39700
N1831       N  0.28821283  0.67476794  0.82827338    -0.37400
N1832       N  0.32766462  0.63238050  0.88454320    -0.39800
N1833       N  0.37034382  0.58756776  0.82343246    -0.39600
N1834       N  0.41791251  0.54220223  0.87267575    -0.37200
N1835       N  0.46106343  0.65625317  0.94160982    -0.38200
N1836       N  0.40943904  0.70116753  0.89667213    -0.39900
C1837       C  0.66465414  0.39608189  0.84963979    -0.04800
C1838       C  0.63659275  0.39491598  0.84699789     0.09300
C1839       C  0.62503314  0.37365132  0.83241889    -0.02200
C1840       C  0.64141650  0.35442315  0.81906011    -0.00500
C1841       C  0.67050644  0.35734851  0.81786105    -0.04100
C1842       C  0.68123840  0.37646324  0.83723197     0.02900
C1843       C  0.61919681  0.41366324  0.86334095     0.09800
C1844       C  0.59584832  0.37087197  0.83243580     0.35600
C1845       C  0.70796049  0.37439970  0.84891170     0.39100
C1846       C  0.60702981  0.43614274  0.85052280    -0.04500
C1847       C  0.59172516  0.45427684  0.86635428     0.02700
C1848       C  0.58858291  0.45014820  0.89531139    -0.04100
C1849       C  0.59997100  0.42698767  0.90785081    -0.00300
C1850       C  0.61506704  0.40881234  0.89189188    -0.02900
C1851       C  0.61040353  0.44067367  0.82100291     0.36400
C1852       C  0.59535385  0.42119872  0.93696475     0.40000
C1853       C  0.57991338  0.47758305  0.85277075     0.39100
C1854       C  0.62620010  0.38478139  0.90469120     0.36100
C1855       C  0.67653972  0.41757201  0.86584743     0.36800
C1856       C  0.62718503  0.33046313  0.81038348     0.40000
N1857       N  0.57038569  0.49609591  0.84189121    -0.38100
N1858       N  0.61293798  0.44432056  0.79743415    -0.39700
N1859       N  0.59161878  0.41638421  0.96014498    -0.37400
N1860       N  0.63512303  0.36549196  0.91460391    -0.39800
N1861       N  0.57265287  0.36858924  0.83261649    -0.39600
N1862       N  0.61446846  0.31200360  0.80402608    -0.37200
N1863       N  0.72800384  0.37382329  0.86128351    -0.38200
N1864       N  0.68585810  0.43478684  0.87867839    -0.39900
C1865       C  0.39153518  0.62465114  0.06676293    -0.04800
C1866       C  0.40421140  0.63951260  0.08778751     0.09300
C1867       C  0.43226128  0.63740294  0.09173624    -0.02200
C1868       C  0.44754223  0.61982590  0.07534392    -0.00500
C1869       C  0.43471871  0.60313485  0.05558846    -0.04100
C1870       C  0.40649268  0.60619885  0.05099530     0.02900
C1871       C  0.38802874  0.65786884  0.10565093     0.09800
C1872       C  0.44543273  0.65372539  0.11256018     0.35600
C1873       C  0.39232573  0.59032604  0.03048215     0.39100
C1874       C  0.37465267  0.64782676  0.12889795    -0.04500
C1875       C  0.36036010  0.66516537  0.14672620     0.02700
C1876       C  0.35728015  0.69368701  0.14045101    -0.04100
C1877       C  0.37308288  0.70312671  0.11725682    -0.00300
C1878       C  0.38764809  0.68535600  0.10015271    -0.02900
C1879       C  0.37697892  0.61927558  0.13521931     0.36400
C1880       C  0.37538197  0.73086476  0.10898259     0.40000
C1881       C  0.35175277  0.65236703  0.17234541     0.39100
C1882       C  0.40292854  0.69539582  0.07650734     0.36100
C1883       C  0.36305858  0.62880197  0.06117949     0.36800
C1884       C  0.47665130  0.62009906  0.07803127     0.40000
N1885       N  0.34545242  0.64057234  0.19207325    -0.38100
N1886       N  0.37902940  0.59662159  0.14027358    -0.39700
N1887       N  0.38007966  0.75126128  0.09842646    -0.37400
N1888       N  0.41524498  0.70332318  0.05785133    -0.39800
N1889       N  0.45583567  0.66689961  0.12909965    -0.39600
N1890       N  0.49988598  0.62058411  0.08001330    -0.37200
N1891       N  0.38068688  0.57791059  0.01415606    -0.38200
N1892       N  0.34042589  0.63246131  0.05670666    -0.39900
C1893       C  0.36073195  0.39716853  0.84821659    -0.04800
C1894       C  0.38880389  0.39564221  0.84744721     0.09300
C1895       C  0.40102747  0.37729534  0.82987993    -0.02200
C1896       C  0.38549481  0.36070679  0.81221253    -0.00500
C1897       C  0.35611070  0.36130325  0.81235446    -0.04100
C1898       C  0.34452672  0.38093918  0.83073315     0.02900
C1899       C  0.40598004  0.41453153  0.86399115     0.09800
C1900       C  0.43037417  0.37577414  0.83003842     0.35600
C1901       C  0.31593041  0.38598833  0.83252838     0.39100
C1902       C  0.41091690  0.40969406  0.89242597    -0.04500
C1903       C  0.42759127  0.42724754  0.90763530     0.02700
C1904       C  0.44019850  0.44931163  0.89428368    -0.04100
C1905       C  0.43645048  0.45317167  0.86541764    -0.00300
C1906       C  0.41883477  0.43630371  0.85055872    -0.02900
C1907       C  0.39925779  0.38633349  0.90591420     0.36400
C1908       C  0.45034163  0.47464609  0.85083484     0.40000
C1909       C  0.43251488  0.42198206  0.93688026     0.39100
C1910       C  0.41386200  0.44138491  0.82130699     0.36100
C1911       C  0.34842687  0.41566531  0.86756527     0.36800
C1912       C  0.40182302  0.34439499  0.79414166     0.40000
N1913       N  0.43649550  0.41781986  0.96019283    -0.38100
N1914       N  0.39014138  0.36766481  0.91680132    -0.39700
N1915       N  0.46163620  0.49150862  0.83900995    -0.37400
N1916       N  0.40999564  0.44553025  0.79798278    -0.39800
N1917       N  0.45365542  0.37472724  0.83017870    -0.39600
N1918       N  0.41634811  0.33219444  0.78042124    -0.37200
N1919       N  0.29393129  0.39284253  0.83582128    -0.38200
N1920       N  0.33862111  0.43012816  0.88317805    -0.39900
C1921       C  0.27174283  0.35975083  0.68761261    -0.04800
C1922       C  0.26305899  0.37697145  0.70850057     0.09300
C1923       C  0.23829112  0.39019683  0.70448852    -0.02200
C1924       C  0.22017515  0.38165152  0.68337850    -0.00500
C1925       C  0.22575478  0.35805512  0.66748509    -0.04100
C1926       C  0.25410467  0.35260538  0.66594161     0.02900
C1927       C  0.27895115  0.37894508  0.73507622     0.09800
C1928       C  0.23202818  0.41320750  0.72145199     0.35600
C1929       C  0.26680115  0.34424363  0.64071974     0.39100
C1930       C  0.30534578  0.38934257  0.73633498    -0.04500
C1931       C  0.32207460  0.38306833  0.75945125     0.02700
C1932       C  0.31493888  0.36173448  0.77766663    -0.04100
C1933       C  0.28588047  0.35936667  0.78095604    -0.00300
C1934       C  0.26835521  0.36771504  0.75938904    -0.02900
C1935       C  0.31477684  0.40709508  0.71454873     0.36400
C1936       C  0.27279530  0.34949376  0.80599427     0.40000
C1937       C  0.34235037  0.40227612  0.76779929     0.39100
C1938       C  0.23939059  0.36474731  0.76222160     0.36100
C1939       C  0.29910816  0.34965826  0.68774985     0.36800
C1940       C  0.19927930  0.40041161  0.67511358     0.40000
N1941       N  0.35817058  0.41806059  0.77445045    -0.38100
N1942       N  0.32224483  0.42119584  0.69700831    -0.39700
N1943       N  0.26150452  0.34195625  0.82551499    -0.37400
N1944       N  0.21630478  0.36273716  0.76463519    -0.39800
N1945       N  0.22710395  0.43158822  0.73498451    -0.39600
N1946       N  0.18313206  0.41611054  0.66882375    -0.37200
N1947       N  0.27768824  0.33897472  0.62046186    -0.38200
N1948       N  0.32092491  0.34165391  0.68716430    -0.39900
C1949       C  0.11856800  0.43526548  0.59849132    -0.04800
C1950       C  0.13563576  0.41706523  0.58488756     0.09300
C1951       C  0.13680639  0.41732886  0.55565687    -0.02200
C1952       C  0.12079432  0.43539668  0.54010412    -0.00500
C1953       C  0.10272040  0.45289966  0.55358957    -0.04100
C1954       C  0.10193018  0.45285289  0.58300321     0.02900
C1955       C  0.15228210  0.39747425  0.60143657     0.09800
C1956       C  0.15445136  0.39888028  0.54142045     0.35600
C1957       C  0.08323283  0.46992123  0.59764694     0.39100
C1958       C  0.13993469  0.37613621  0.61560227    -0.04500
C1959       C  0.15513345  0.35861244  0.63289875     0.02700
C1960       C  0.18423389  0.36021383  0.63400449    -0.04100
C1961       C  0.19621919  0.38119274  0.61716891    -0.00300
C1962       C  0.18027955  0.40025738  0.60272971    -0.02900
C1963       C  0.11111764  0.37197245  0.61183482     0.36400
C1964       C  0.22502017  0.38430065  0.61375855     0.40000
C1965       C  0.13920724  0.33953966  0.64864574     0.39100
C1966       C  0.19283669  0.42305928  0.58881948     0.36100
C1967       C  0.11791608  0.43566273  0.62857722     0.36800
C1968       C  0.12348608  0.43613677  0.51014932     0.40000
N1969       N  0.12502514  0.32520989  0.66073896    -0.38100
N1970       N  0.08825422  0.36851821  0.60870750    -0.39700
N1971       N  0.24740048  0.38917251  0.60943668    -0.37400
N1972       N  0.20282119  0.44113679  0.57767839    -0.39800
N1973       N  0.16862838  0.38449102  0.52978039    -0.39600
N1974       N  0.12583818  0.43657993  0.48629120    -0.37200
N1975       N  0.06832331  0.48344791  0.60944110    -0.38200
N1976       N  0.11728635  0.43590665  0.65255176    -0.39900
C1977       C  0.27897971  0.22865281  0.82989315    -0.04800
C1978       C  0.27153209  0.25333405  0.84104272     0.09300
C1979       C  0.24554510  0.25530750  0.85214078    -0.02200
C1980       C  0.22535384  0.23663500  0.84400350    -0.00500
C1981       C  0.23077270  0.21761465  0.82257633    -0.04100
C1982       C  0.25893589  0.21071059  0.82042881     0.02900
C1983       C  0.28681068  0.27777052  0.83124695     0.09800
C1984       C  0.23931745  0.27718209  0.87053500     0.35600
C1985       C  0.26875517  0.18409645  0.81492560     0.39100
C1986       C  0.28748207  0.28266816  0.80254153    -0.04500
C1987       C  0.30388505  0.30277382  0.79117235     0.02700
C1988       C  0.32004751  0.32014870  0.80842877    -0.04100
C1989       C  0.31947219  0.31456085  0.83779597    -0.00300
C1990       C  0.30269649  0.29379120  0.84882919    -0.02900
C1991       C  0.27228414  0.26546646  0.78402815     0.36400
C1992       C  0.33742548  0.32761390  0.85716732     0.40000
C1993       C  0.30273126  0.30596771  0.76109055     0.39100
C1994       C  0.30248090  0.28823049  0.87839314     0.36100
C1995       C  0.30737021  0.22364353  0.82477108     0.36800
C1996       C  0.19866049  0.23863107  0.85595775     0.40000
N1997       N  0.30125867  0.30823798  0.73724383    -0.38100
N1998       N  0.26165043  0.25065682  0.76925456    -0.39700
N1999       N  0.35171374  0.33691204  0.87352067    -0.37400
N2000       N  0.30222396  0.28402755  0.90202504    -0.39800
N2001       N  0.23427359  0.29457969  0.88534342    -0.39600
N2002       N  0.17743061  0.24019697  0.86558315    -0.37200
N2003       N  0.27915086  0.16352621  0.81205979    -0.38200
N2004       N  0.32994303  0.21976712  0.82054557    -0.39900
C2005       C  0.17339567  0.27755306  0.69232308    -0.04800
C2006       C  0.17491370  0.28633121  0.72003789     0.09300
C2007       C  0.17406201  0.31427569  0.72402056    -0.02200
C2008       C  0.17885339  0.33260169  0.70169588    -0.00500
C2009       C  0.18623669  0.32315870  0.67476173    -0.04100
C2010       C  0.17772569  0.29590179  0.66993298     0.02900
C2011       C  0.17899782  0.26752231  0.74505680     0.09800
C2012       C  0.16600432  0.32393868  0.75105006     0.35600
C2013       C  0.17124617  0.28697965  0.64203328     0.39100
C2014       C  0.20276591  0.27008186  0.76093626    -0.04500
C2015       C  0.20461005  0.25789858  0.78734465     0.02700
C2016       C  0.19003742  0.23384965  0.79331102    -0.04100
C2017       C  0.16371039  0.23451053  0.78082731    -0.00300
C2018       C  0.15823903  0.25157995  0.75701926    -0.02900
C2019       C  0.22214501  0.29082361  0.75432663     0.36400
C2020       C  0.14110142  0.22321875  0.79549952     0.40000
C2021       C  0.20449515  0.27835652  0.80844868     0.39100
C2022       C  0.13144134  0.25302283  0.74517761     0.36100
C2023       C  0.16585548  0.25026443  0.68602477     0.36800
C2024       C  0.16885968  0.35942286  0.70566229     0.40000
N2025       N  0.20345031  0.29579424  0.82407917    -0.38100
N2026       N  0.23788724  0.30750758  0.75055752    -0.39700
N2027       N  0.12232520  0.21541476  0.80718307    -0.37400
N2028       N  0.11004788  0.25437469  0.73563603    -0.39800
N2029       N  0.15911132  0.33133901  0.77253532    -0.39600
N2030       N  0.15892286  0.37974167  0.71088422    -0.37200
N2031       N  0.16574985  0.27969226  0.62000004    -0.38200
N2032       N  0.15919661  0.22920919  0.67877648    -0.39900
C2033       C  0.17310305  0.16471298  0.86449191    -0.04800
C2034       C  0.14900886  0.15640923  0.85200476     0.09300
C2035       C  0.14583101  0.15967492  0.82332559    -0.02200
C2036       C  0.16639582  0.17164730  0.80731454    -0.00500
C2037       C  0.18845559  0.18556217  0.82010338    -0.04100
C2038       C  0.19333120  0.17764119  0.84863259     0.02900
C2039       C  0.12900255  0.14005154  0.86809856     0.09800
C2040       C  0.12152701  0.14966112  0.80995768     0.35600
C2041       C  0.21978587  0.17826573  0.86152965     0.39100
C2042       C  0.11072894  0.15249604  0.88605661    -0.04500
C2043       C  0.09156797  0.13698292  0.90072618     0.02700
C2044       C  0.09035236  0.10863195  0.89731418    -0.04100
C2045       C  0.10855962  0.09645983  0.87865841    -0.00300
C2046       C  0.12814882  0.11198885  0.86480748    -0.02900
C2047       C  0.11158179  0.18142987  0.88915372     0.36400
C2048       C  0.10708107  0.06800807  0.87288813     0.40000
C2049       C  0.07243947  0.15075869  0.91819140     0.39100
C2050       C  0.14767332  0.09902602  0.84708563     0.36100
C2051       C  0.17749602  0.15883111  0.89375370     0.36800
C2052       C  0.16705652  0.16312087  0.77883016     0.40000
N2053       N  0.05724707  0.16200195  0.93198748    -0.38100
N2054       N  0.11241867  0.20449740  0.89156637    -0.39700
N2055       N  0.10563166  0.04546787  0.86756386    -0.37400
N2056       N  0.16325608  0.08873311  0.83297384    -0.39800
N2057       N  0.10215962  0.14174171  0.79935985    -0.39600
N2058       N  0.16676779  0.15294287  0.75736306    -0.37200
N2059       N  0.24039442  0.17807083  0.87288705    -0.38200
N2060       N  0.18091046  0.15415272  0.91705178    -0.39900
C2061       C  0.36953290  0.31364643  0.72446021    -0.04800
C2062       C  0.37080764  0.28638575  0.73181359     0.09300
C2063       C  0.37179147  0.27975796  0.76008054    -0.02200
C2064       C  0.36498997  0.29910543  0.78014831    -0.00500
C2065       C  0.35519816  0.32543798  0.77202970    -0.04100
C2066       C  0.36273219  0.33330530  0.74442186     0.02900
C2067       C  0.36450015  0.26536287  0.71052629     0.09800
C2068       C  0.37936343  0.25272016  0.76834356     0.35600
C2069       C  0.37141400  0.36024616  0.73784594     0.39100
C2070       C  0.38270235  0.25521172  0.69098798    -0.04500
C2071       C  0.37360897  0.23629993  0.67065665     0.02700
C2072       C  0.34500596  0.23290521  0.66524767    -0.04100
C2073       C  0.32804807  0.24622655  0.68463952    -0.00300
C2074       C  0.33812221  0.25649378  0.70915877    -0.02900
C2075       C  0.41089016  0.26230873  0.69356271     0.36400
C2076       C  0.29975869  0.24939890  0.68014218     0.40000
C2077       C  0.39420777  0.21976924  0.65857943     0.39100
C2078       C  0.32452032  0.24977534  0.73453539     0.36100
C2079       C  0.37789739  0.32167246  0.69684156     0.36800
C2080       C  0.37000448  0.29200851  0.80897499     0.40000
N2081       N  0.41176531  0.20687451  0.65037158    -0.38100
N2082       N  0.43337092  0.26810288  0.69574719    -0.39700
N2083       N  0.27722943  0.25210199  0.67554047    -0.37400
N2084       N  0.31577980  0.24220563  0.75528828    -0.39800
N2085       N  0.38540126  0.23116081  0.77494394    -0.39600
N2086       N  0.37479905  0.28558904  0.83158900    -0.37200
N2087       N  0.38045729  0.38057287  0.73070618    -0.38200
N2088       N  0.38527121  0.32870250  0.67525125    -0.39900
C2089       C  0.23680616  0.30195120  0.58789217    -0.04800
C2090       C  0.24888331  0.28013987  0.60192745     0.09300
C2091       C  0.24062469  0.27535097  0.62885890    -0.02200
C2092       C  0.23121715  0.29666066  0.64475651    -0.00500
C2093       C  0.21742372  0.31888277  0.63208036    -0.04100
C2094       C  0.21771398  0.31844358  0.60203437     0.02900
C2095       C  0.27436670  0.26617280  0.59330587     0.09800
C2096       C  0.23287743  0.24827127  0.63574752     0.35600
C2097       C  0.19741815  0.33134982  0.58505990     0.39100
C2098       C  0.29825979  0.27767991  0.60245207    -0.04500
C2099       C  0.31587578  0.26275447  0.61977635     0.02700
C2100       C  0.31387174  0.23363578  0.62118202    -0.04100
C2101       C  0.29767526  0.22322351  0.59907613    -0.00300
C2102       C  0.27535030  0.23840802  0.58877972    -0.02900
C2103       C  0.30704319  0.30220094  0.58899091     0.36400
C2104       C  0.30525790  0.19900694  0.58471358     0.40000
C2105       C  0.33627173  0.27865152  0.63346261     0.39100
C2106       C  0.25432150  0.22617838  0.57236794     0.36100
C2107       C  0.24238653  0.30604799  0.55877486     0.36800
C2108       C  0.23884688  0.29665859  0.67353625     0.40000
N2109       N  0.35227097  0.29232020  0.64362029    -0.38100
N2110       N  0.31441579  0.32129338  0.57746608    -0.39700
N2111       N  0.31101957  0.17983936  0.57276151    -0.37400
N2112       N  0.23740421  0.21652363  0.55920648    -0.39800
N2113       N  0.22539533  0.22660113  0.63967204    -0.39600
N2114       N  0.24643209  0.29763634  0.69615701    -0.37200
N2115       N  0.18097799  0.34060891  0.57083998    -0.38200
N2116       N  0.24683099  0.30933468  0.53546939    -0.39900
C2117       C  0.23587287  0.20754137  0.73242779    -0.04800
C2118       C  0.25473776  0.18639507  0.73190763     0.09300
C2119       C  0.25062940  0.16513365  0.75139961    -0.02200
C2120       C  0.23205177  0.16861146  0.77380141    -0.00500
C2121       C  0.21804096  0.19344472  0.77615471    -0.04100
C2122       C  0.21449667  0.20635628  0.75058238     0.02900
C2123       C  0.27449569  0.18491161  0.70808544     0.09800
C2124       C  0.26406932  0.13971536  0.74763706     0.35600
C2125       C  0.18865344  0.20335069  0.73706447     0.39100
C2126       C  0.30258846  0.18378561  0.71198443    -0.04500
C2127       C  0.32015507  0.18693392  0.68899275     0.02700
C2128       C  0.31028433  0.19625302  0.66241476    -0.04100
C2129       C  0.28204103  0.19075546  0.65800669    -0.00300
C2130       C  0.26478500  0.18479592  0.68070133    -0.02900
C2131       C  0.31361460  0.17986597  0.73959830     0.36400
C2132       C  0.27096079  0.18362161  0.63141142     0.40000
C2133       C  0.34843199  0.18062806  0.69293709     0.39100
C2134       C  0.23687530  0.17685801  0.67606794     0.36100
C2135       C  0.23344708  0.22779292  0.71143973     0.36800
C2136       C  0.22665017  0.14660696  0.79283891     0.40000
N2137       N  0.37078579  0.17491386  0.69641854    -0.38100
N2138       N  0.32260475  0.17669854  0.76157132    -0.39700
N2139       N  0.25975139  0.17610424  0.61184640    -0.37400
N2140       N  0.21467970  0.17051427  0.67267209    -0.39800
N2141       N  0.27463105  0.11931042  0.74441213    -0.39600
N2142       N  0.22236474  0.12888127  0.80785658    -0.37200
N2143       N  0.16824879  0.19987682  0.72598221    -0.38200
N2144       N  0.22744895  0.24424069  0.69573991    -0.39900
C2145       C  0.36775370  0.15154557  0.60971719    -0.04800
C2146       C  0.38796816  0.16414998  0.59428795     0.09300
C2147       C  0.38853724  0.19215195  0.59254021    -0.02200
C2148       C  0.36899013  0.20781357  0.60628114    -0.00500
C2149       C  0.34983964  0.19586284  0.62514707    -0.04100
C2150       C  0.34883848  0.16672295  0.62488673     0.02900
C2151       C  0.40761493  0.14755509  0.57823563     0.09800
C2152       C  0.41014631  0.20493331  0.57702384     0.35600
C2153       C  0.32770735  0.15078941  0.63758454     0.39100
C2154       C  0.40362545  0.14356312  0.54964271    -0.04500
C2155       C  0.42058583  0.12608758  0.53485498     0.02700
C2156       C  0.44171223  0.11195459  0.54869977    -0.04100
C2157       C  0.44640826  0.11730775  0.57729672    -0.00300
C2158       C  0.42931966  0.13483096  0.59186944    -0.02900
C2159       C  0.38153456  0.15717942  0.53558256     0.36400
C2160       C  0.46840744  0.10462397  0.59236898     0.40000
C2161       C  0.41617405  0.12324010  0.50526576     0.39100
C2162       C  0.43371610  0.13942163  0.62122523     0.36100
C2163       C  0.36594925  0.12238095  0.60902509     0.36800
C2164       C  0.37018601  0.23634952  0.60058851     0.40000
N2165       N  0.41243520  0.12119205  0.48167110    -0.38100
N2166       N  0.36391127  0.16820627  0.52459020    -0.39700
N2167       N  0.48597704  0.09470269  0.60454307    -0.37400
N2168       N  0.43721371  0.14294600  0.64464884    -0.39800
N2169       N  0.42755257  0.21498030  0.56489834    -0.39600
N2170       N  0.37318301  0.25851904  0.59394722    -0.37200
N2171       N  0.31151610  0.13680190  0.64713832    -0.38200
N2172       N  0.36443293  0.09922751  0.60826540    -0.39900
C2173       C  0.15450326  0.40941469  0.31481380    -0.04800
C2174       C  0.15658076  0.41016381  0.34371228     0.09300
C2175       C  0.17868346  0.39814447  0.35684139    -0.02200
C2176       C  0.19748933  0.38305783  0.34152702    -0.00500
C2177       C  0.19406940  0.37891858  0.31186239    -0.04100
C2178       C  0.17393619  0.39574479  0.29894258     0.02900
C2179       C  0.13671565  0.42572336  0.36036030     0.09800
C2180       C  0.18276224  0.40267607  0.38638068     0.35600
C2181       C  0.17298237  0.40141195  0.26954983     0.39100
C2182       C  0.11814000  0.41218222  0.37746548    -0.04500
C2183       C  0.10083018  0.42679984  0.39479687     0.02700
C2184       C  0.10041070  0.45529625  0.39344388    -0.04100
C2185       C  0.11797215  0.46866451  0.37472956    -0.00300
C2186       C  0.13690090  0.45398548  0.35940851    -0.02900
C2187       C  0.11634135  0.38312737  0.37655176     0.36400
C2188       C  0.11649768  0.49747309  0.37051936     0.40000
C2189       C  0.08291215  0.41214199  0.41316682     0.39100
C2190       C  0.15675958  0.46796793  0.34264730     0.36100
C2191       C  0.13204029  0.42304067  0.30126261     0.36800
C2192       C  0.22113952  0.37496484  0.35736855     0.40000
N2193       N  0.06882580  0.40030283  0.42790779    -0.38100
N2194       N  0.11464654  0.35999578  0.37554856    -0.39700
N2195       N  0.11500448  0.52033195  0.36639209    -0.37400
N2196       N  0.17265317  0.47898482  0.32926538    -0.39800
N2197       N  0.18617698  0.40653004  0.40976114    -0.39600
N2198       N  0.23922383  0.36901192  0.37139020    -0.37200
N2199       N  0.17050367  0.40893195  0.24690674    -0.38200
N2200       N  0.11421440  0.43397971  0.29053524    -0.39900
C2201       C  0.16893575  0.24312924  0.23951118    -0.04800
C2202       C  0.16849804  0.26847518  0.22672966     0.09300
C2203       C  0.16111529  0.26983804  0.19861052    -0.02200
C2204       C  0.15886738  0.24592760  0.18302089    -0.00500
C2205       C  0.16954951  0.22113652  0.19345556    -0.04100
C2206       C  0.16883722  0.21941011  0.22332287     0.02900
C2207       C  0.17737793  0.29285411  0.24276699     0.09800
C2208       C  0.15432027  0.29553628  0.18622807     0.35600
C2209       C  0.15909464  0.19604374  0.23804818     0.39100
C2210       C  0.20471005  0.29913868  0.24305297    -0.04500
C2211       C  0.21519284  0.31845404  0.26114599     0.02700
C2212       C  0.19821853  0.33569134  0.27732479    -0.04100
C2213       C  0.16990677  0.32909159  0.27666494    -0.00300
C2214       C  0.15999221  0.30761847  0.25985077    -0.02900
C2215       C  0.22260706  0.28659009  0.22354067     0.36400
C2216       C  0.15031578  0.34235845  0.29377096     0.40000
C2217       C  0.24411529  0.32136449  0.26096910     0.39100
C2218       C  0.13166081  0.30052310  0.25999680     0.36100
C2219       C  0.16635014  0.24167154  0.26948427     0.36800
C2220       C  0.14063513  0.24594709  0.15958091     0.40000
N2221       N  0.26724166  0.32285378  0.26028643    -0.38100
N2222       N  0.23811028  0.27828555  0.20815380    -0.39700
N2223       N  0.13354977  0.35161542  0.30722886    -0.37400
N2224       N  0.10908433  0.29474855  0.26012438    -0.39800
N2225       N  0.14861755  0.31601642  0.17635141    -0.39600
N2226       N  0.12488727  0.24626140  0.14178950    -0.37200
N2227       N  0.15007918  0.17924325  0.25192603    -0.38200
N2228       N  0.16354535  0.24047129  0.29326709    -0.39900
C2229       C  0.12330262  0.16812221  0.13489257    -0.04800
C2230       C  0.13412582  0.16015678  0.10955512     0.09300
C2231       C  0.16099083  0.16629051  0.10352144    -0.02200
C2232       C  0.17712525  0.18097173  0.12242719    -0.00500
C2233       C  0.16673531  0.18951787  0.14890525    -0.04100
C2234       C  0.13930774  0.18175306  0.15469829     0.02900
C2235       C  0.11763024  0.14318982  0.09019245     0.09800
C2236       C  0.17243480  0.15609345  0.07804166     0.35600
C2237       C  0.12624271  0.18676716  0.18088804     0.39100
C2238       C  0.10312194  0.15496942  0.06806435    -0.04500
C2239       C  0.08667916  0.13898936  0.05070332     0.02700
C2240       C  0.08402442  0.11088303  0.05580304    -0.04100
C2241       C  0.09920994  0.09924396  0.07791298    -0.00300
C2242       C  0.11599675  0.11529136  0.09471667    -0.02900
C2243       C  0.10484515  0.18374728  0.06350177     0.36400
C2244       C  0.09802504  0.07064573  0.08360638     0.40000
C2245       C  0.07227049  0.15200762  0.02804817     0.39100
C2246       C  0.13172674  0.10312198  0.11694745     0.36100
C2247       C  0.09547532  0.16108687  0.14099338     0.36800
C2248       C  0.20462215  0.18632785  0.11367056     0.40000
N2249       N  0.06102919  0.16260347  0.00993299    -0.38100
N2250       N  0.10620017  0.20670301  0.05992290    -0.39700
N2251       N  0.09703723  0.04788852  0.08848148    -0.37400
N2252       N  0.14438458  0.09356710  0.13466296    -0.39800
N2253       N  0.18147665  0.14760348  0.05788980    -0.39600
N2254       N  0.22639651  0.19010897  0.10607061    -0.37200
N2255       N  0.11368654  0.19031477  0.20064956    -0.38200
N2256       N  0.07339362  0.15532531  0.14580301    -0.39900
C2257       C  0.30364194  0.26524745  0.34145629    -0.04800
C2258       C  0.27820415  0.27002674  0.32931785     0.09300
C2259       C  0.26698269  0.24898086  0.31368271    -0.02200
C2260       C  0.28142959  0.22511513  0.30978106    -0.00500
C2261       C  0.31001193  0.22507791  0.31212634    -0.04100
C2262       C  0.32067956  0.24506620  0.33049823     0.02900
C2263       C  0.26380744  0.29685044  0.33127339     0.09800
C2264       C  0.24113771  0.25187561  0.30018285     0.35600
C2265       C  0.34846567  0.24515574  0.33946859     0.39100
C2266       C  0.27636639  0.32119918  0.32353532    -0.04500
C2267       C  0.26066392  0.34415751  0.31653434     0.02700
C2268       C  0.23193142  0.34212061  0.31415279    -0.04100
C2269       C  0.22052923  0.32025694  0.32998693    -0.00300
C2270       C  0.23648335  0.29812994  0.33857715    -0.02900
C2271       C  0.30550780  0.32324584  0.32383794     0.36400
C2272       C  0.19262538  0.32043257  0.33857681     0.40000
C2273       C  0.27427240  0.36962369  0.31876977     0.39100
C2274       C  0.22484556  0.27643047  0.35487692     0.36100
C2275       C  0.31157914  0.28007790  0.36590034     0.36800
C2276       C  0.26593967  0.20058359  0.30925833     0.40000
N2277       N  0.28700912  0.38873983  0.32253047    -0.38100
N2278       N  0.32874774  0.32505900  0.32453695    -0.39700
N2279       N  0.17082425  0.31983572  0.34690561    -0.37400
N2280       N  0.21563549  0.25907413  0.36781728    -0.39800
N2281       N  0.22069291  0.25449782  0.28901129    -0.39600
N2282       N  0.25268370  0.18151224  0.31030814    -0.37200
N2283       N  0.37010691  0.24669225  0.34831052    -0.38200
N2284       N  0.31765218  0.29169550  0.38563492    -0.39900
C2285       C  0.29156583  0.18249410  0.22628011    -0.04800
C2286       C  0.27257952  0.16336512  0.23434189     0.09300
C2287       C  0.27909815  0.15029970  0.25979747    -0.02200
C2288       C  0.29971185  0.16154001  0.27771358    -0.00500
C2289       C  0.30996765  0.18868109  0.27256398    -0.04100
C2290       C  0.29947871  0.19987534  0.24727286     0.02900
C2291       C  0.24678859  0.15994979  0.21693884     0.09800
C2292       C  0.26675880  0.12467405  0.26621516     0.35600
C2293       C  0.28424349  0.22438845  0.24728768     0.39100
C2294       C  0.24766406  0.15961479  0.18739553    -0.04500
C2295       C  0.22382670  0.16415491  0.17159228     0.02700
C2296       C  0.20134766  0.17595232  0.18475364    -0.04100
C2297       C  0.19742467  0.16428980  0.21093892    -0.00300
C2298       C  0.22021802  0.15940171  0.22839615    -0.02900
C2299       C  0.27128498  0.15036935  0.17297718     0.36400
C2300       C  0.17521538  0.14553106  0.21274711     0.40000
C2301       C  0.21805620  0.14385717  0.15110509     0.39100
C2302       C  0.21529353  0.15526971  0.25756157     0.36100
C2303       C  0.31405769  0.17157572  0.21125132     0.36800
C2304       C  0.30732696  0.14566284  0.30174308     0.40000
N2305       N  0.21347338  0.12713193  0.13526025    -0.38100
N2306       N  0.28949212  0.14267944  0.16048472    -0.39700
N2307       N  0.15765650  0.13026721  0.21386933    -0.37400
N2308       N  0.21029522  0.15187054  0.28072888    -0.39800
N2309       N  0.25693855  0.10416823  0.27136975    -0.39600
N2310       N  0.31290396  0.13194364  0.32039962    -0.37200
N2311       N  0.27249205  0.24441174  0.24660152    -0.38200
N2312       N  0.33206165  0.16267742  0.19930963    -0.39900
C2313       C  0.38554024  0.15495296  0.31273448    -0.04800
C2314       C  0.38408646  0.15293559  0.34176066     0.09300
C2315       C  0.36278070  0.16560933  0.35551000    -0.02200
C2316       C  0.34371797  0.18139785  0.34065165    -0.00500
C2317       C  0.34654372  0.18616151  0.31132331    -0.04100
C2318       C  0.36630329  0.17013347  0.29753214     0.02900
C2319       C  0.40384503  0.13574097  0.35777058     0.09800
C2320       C  0.36003389  0.16158248  0.38523069     0.35600
C2321       C  0.36848870  0.17047178  0.26755428     0.39100
C2322       C  0.42509725  0.14752866  0.37306636    -0.04500
C2323       C  0.44313208  0.13126628  0.38860966     0.02700
C2324       C  0.43946356  0.10321107  0.38987866    -0.04100
C2325       C  0.41837296  0.09137688  0.37443143    -0.00300
C2326       C  0.40084377  0.10753453  0.35821394    -0.02900
C2327       C  0.42809963  0.17644674  0.37332866     0.36400
C2328       C  0.41476525  0.06248770  0.37514428     0.40000
C2329       C  0.46536624  0.14340268  0.40355347     0.39100
C2330       C  0.37941735  0.09518980  0.34221151     0.36100
C2331       C  0.40798278  0.14258287  0.29857134     0.36800
C2332       C  0.31975766  0.18905353  0.35569443     0.40000
N2333       N  0.48322804  0.15302860  0.41535467    -0.38100
N2334       N  0.43052208  0.19952645  0.37397069    -0.39700
N2335       N  0.41187648  0.03944196  0.37569569    -0.37400
N2336       N  0.36238799  0.08543324  0.32927892    -0.39800
N2337       N  0.35787334  0.15830851  0.40889459    -0.39600
N2338       N  0.30087658  0.19464421  0.36836192    -0.37200
N2339       N  0.37123555  0.17092952  0.24376771    -0.38200
N2340       N  0.42610024  0.13305987  0.28735442    -0.39900
C2341       C  0.38593415  0.28071545  0.18832489    -0.04800
C2342       C  0.38151605  0.28178046  0.21708566     0.09300
C2343       C  0.37401737  0.30661419  0.22816222    -0.02200
C2344       C  0.36509167  0.32766160  0.21050173    -0.00500
C2345       C  0.36096516  0.32307854  0.18114598    -0.04100
C2346       C  0.37824790  0.30261588  0.17097083     0.02900
C2347       C  0.37441092  0.25696391  0.23355019     0.09800
C2348       C  0.37379342  0.30983991  0.25803843     0.35600
C2349       C  0.39444575  0.30781520  0.14668693     0.39100
C2350       C  0.38949802  0.24705355  0.25632030    -0.04500
C2351       C  0.37660481  0.23047403  0.27701946     0.02700
C2352       C  0.34749842  0.22672843  0.27632450    -0.04100
C2353       C  0.33495981  0.24448968  0.25760516    -0.00300
C2354       C  0.34742038  0.24993379  0.23259184    -0.02900
C2355       C  0.41782473  0.25368857  0.25804086     0.36400
C2356       C  0.32042394  0.26699822  0.26858135     0.40000
C2357       C  0.39348662  0.22101536  0.29951237     0.39100
C2358       C  0.33181237  0.25697293  0.20863907     0.36100
C2359       C  0.39785198  0.25695689  0.17662544     0.36800
C2360       C  0.36426385  0.35412979  0.22285559     0.40000
N2361       N  0.40800147  0.21405512  0.31698780    -0.38100
N2362       N  0.44051287  0.25889027  0.25922870    -0.39700
N2363       N  0.30913154  0.28568938  0.27631525    -0.37400
N2364       N  0.32150051  0.26340913  0.18823713    -0.39800
N2365       N  0.37365840  0.31229856  0.28186044    -0.39600
N2366       N  0.36463051  0.37508780  0.23303707    -0.37200
N2367       N  0.40806312  0.31212475  0.12775209    -0.38200
N2368       N  0.40737405  0.23789858  0.16732838    -0.39900
C2369       C  0.30239662  0.36797131  0.22478138    -0.04800
C2370       C  0.29196342  0.39262413  0.21733014     0.09300
C2371       C  0.29986465  0.40310996  0.19131065    -0.02200
C2372       C  0.31855388  0.38855542  0.17431890    -0.00500
C2373       C  0.32387391  0.36036117  0.17997500    -0.04100
C2374       C  0.31077979  0.35041403  0.20437766     0.02900
C2375       C  0.26609992  0.39931173  0.23193617     0.09800
C2376       C  0.28823408  0.42824667  0.18190523     0.35600
C2377       C  0.30362042  0.32283354  0.20915438     0.39100
C2378       C  0.26567900  0.40867402  0.25938880    -0.04500
C2379       C  0.24479637  0.40034873  0.27779353     0.02700
C2380       C  0.22778391  0.37822450  0.27080560    -0.04100
C2381       C  0.22378338  0.37593839  0.24099532    -0.00300
C2382       C  0.24273128  0.38681732  0.22220421    -0.02900
C2383       C  0.28642128  0.42712199  0.26833259     0.36400
C2384       C  0.19982346  0.36454306  0.22817332     0.40000
C2385       C  0.23967210  0.41627159  0.30217258     0.39100
C2386       C  0.23818239  0.38519858  0.19256323     0.36100
C2387       C  0.30850036  0.36233599  0.25341702     0.36800
C2388       C  0.32825439  0.40222963  0.14981069     0.40000
N2389       N  0.23582594  0.42963900  0.32123808    -0.38100
N2390       N  0.30290686  0.44200006  0.27549056    -0.39700
N2391       N  0.18099003  0.35610701  0.21697698    -0.37400
N2392       N  0.23335905  0.38448642  0.16911303    -0.39800
N2393       N  0.27855127  0.44811168  0.17427135    -0.39600
N2394       N  0.33538583  0.41414839  0.13050770    -0.37200
N2395       N  0.29479678  0.30191972  0.21407168    -0.38200
N2396       N  0.31552598  0.35855158  0.27594134    -0.39900
C2397       C  0.30029563  0.27435265  0.13318259    -0.04800
C2398       C  0.27426361  0.27989724  0.14331303     0.09300
C2399       C  0.26879769  0.30692562  0.14966854    -0.02200
C2400       C  0.28946742  0.32653452  0.14843603    -0.00500
C2401       C  0.31743722  0.31923827  0.14859170    -0.04100
C2402       C  0.32183462  0.29348260  0.13593801     0.02900
C2403       C  0.25247385  0.25821962  0.14626116     0.09800
C2404       C  0.24173311  0.31514131  0.15679308     0.35600
C2405       C  0.34557281  0.28799330  0.11986201     0.39100
C2406       C  0.25478773  0.23838004  0.16694308    -0.04500
C2407       C  0.23187204  0.22549338  0.17738049     0.02700
C2408       C  0.20830161  0.22235309  0.16104307    -0.04100
C2409       C  0.20652784  0.24053432  0.13742696    -0.00300
C2410       C  0.22801143  0.25887846  0.13113422    -0.02900
C2411       C  0.28032482  0.22595353  0.17226629     0.36400
C2412       C  0.18382835  0.24076228  0.11844290     0.40000
C2413       C  0.23089493  0.22032426  0.20682421     0.39100
C2414       C  0.22584734  0.27710084  0.10759242     0.36100
C2415       C  0.30454475  0.24938015  0.11860039     0.36800
C2416       C  0.28161383  0.35325961  0.13965635     0.40000
N2417       N  0.22811638  0.21712914  0.23041079    -0.38100
N2418       N  0.30059456  0.21471572  0.17408433    -0.39700
N2419       N  0.16691199  0.24111062  0.10181825    -0.37400
N2420       N  0.22417472  0.29158619  0.08877212    -0.39800
N2421       N  0.22012477  0.32164990  0.16254130    -0.39600
N2422       N  0.27531729  0.37402552  0.13087845    -0.37200
N2423       N  0.36271488  0.28222532  0.10489462    -0.38200
N2424       N  0.30788310  0.22955094  0.10681756    -0.39900
C2425       C  0.39270857  0.42398633  0.06459504    -0.04800
C2426       C  0.40512990  0.40124304  0.07671876     0.09300
C2427       C  0.43305650  0.39715173  0.07277250    -0.02200
C2428       C  0.44859261  0.41636912  0.05815628    -0.00500
C2429       C  0.43633165  0.43974932  0.04713603    -0.04100
C2430       C  0.40817643  0.44318774  0.05003293     0.02900
C2431       C  0.38962879  0.38408271  0.09701857     0.09800
C2432       C  0.44592917  0.37341399  0.08432135     0.35600
C2433       C  0.39513715  0.46733216  0.03961339     0.39100
C2434       C  0.36882438  0.36696845  0.08844929    -0.04500
C2435       C  0.35174181  0.35408612  0.10814358     0.02700
C2436       C  0.35771036  0.35465297  0.13761364    -0.04100
C2437       C  0.38096674  0.37073588  0.14504242    -0.00300
C2438       C  0.39478134  0.38670517  0.12533204    -0.02900
C2439       C  0.36451673  0.36338752  0.05887788     0.36400
C2440       C  0.39361650  0.37060045  0.17203754     0.40000
C2441       C  0.32766374  0.34218631  0.09648396     0.39100
C2442       C  0.41454348  0.40653311  0.13432864     0.36100
C2443       C  0.36401268  0.42819436  0.06791619     0.36800
C2444       C  0.47716503  0.41189905  0.05416492     0.40000
N2445       N  0.30899829  0.33299604  0.08561485    -0.38100
N2446       N  0.36119754  0.36060730  0.03531367    -0.39700
N2447       N  0.40732545  0.37188733  0.19147470    -0.37400
N2448       N  0.43011699  0.42240225  0.14137135    -0.39800
N2449       N  0.45635494  0.35456231  0.09354596    -0.39600
N2450       N  0.49993732  0.40834733  0.05081445    -0.37200
N2451       N  0.38463210  0.48658375  0.03145085    -0.38200
N2452       N  0.34107954  0.43151534  0.07021126    -0.39900
loop_ 
_geom_bond_atom_site_label_1 
_geom_bond_atom_site_label_2 
_geom_bond_distance 
_geom_bond_site_symmetry_2 
_ccdc_geom_bond_type 
C1         C2345   1.626       .  S
C1         C2373   1.613       .  S
C1         C2401   1.636       .  S
C1         C2436   1.609       .  S
C2         C2261   1.592       .  S
C2         C2289   1.631       .  S
C2         C2317   1.585       .  S
C2         C2352   1.619       .  S
C3         C2205   1.624       .  S
C3         C2233   1.593       .  S
C3         C2296   1.618       .  S
C3         C2408   1.609       .  S
C4         C2177   1.604       .  S
C4         C2212   1.609       .  S
C4         C2268   1.611       .  S
C4         C2380   1.625       .  S
C5         C2072   1.612       .  S
C5         C2100   1.622       .  S
C5         C2128   1.629       .  S
C5         C2149   1.601       .  S
C6         C1981   1.609       .  S
C6         C2016   1.644       .  S
C6         C2037   1.605       .  S
C6         C2121   1.588       .  S
C7         C1925   1.623       .  S
C7         C1960   1.593       .  S
C7         C2009   1.628       .  S
C7         C2093   1.615       .  S
C8         C1897   1.611       .  S
C8         C1932   1.622       .  S
C8         C1988   1.597       .  S
C8         C2065   1.617       .  S
N9           N10   1.319       .  A
N9           N15   1.317       .  A
N9          Mn38   2.203   1_554  S
N10          C17   1.352       .  A
N11          N13   1.315       .  A
N11          N12   1.323       .  A
N11         Mn27   2.232       .  S
N12          C18   1.360       .  A
N13          N14   1.319       .  A
N13         Mn38   2.184   1_554  S
N14          C18   1.351       .  A
N15          N16   1.323       .  A
N15         Mn27   2.214       .  S
N16          C17   1.356       .  A
C17        C2429   1.492       .  S
C18        C1869   1.503       .  S
N19          N25   1.318       .  A
N19          N20   1.320       .  A
N19         Mn49   2.209   1_554  S
N20          C28   1.351       .  A
N21          N22   1.325       .  A
N21          N23   1.315       .  A
N21         Mn27   2.232       .  S
N22          C29   1.361       .  A
N23          N24   1.320       .  A
N23         Mn49   2.203   1_554  S
N24          C29   1.353       .  A
N25          N26   1.321       .  A
N25         Mn27   2.208       .  S
N26          C28   1.352       .  A
Mn27        Cl51   2.563   1_554  S
C28        C1785   1.478       .  S
C29        C1729   1.519       .  S
N30          N31   1.321       .  A
N30          N36   1.317       .  A
N30         Mn38   2.205       .  S
N31          C39   1.351       .  A
N32          N34   1.314       .  A
N32          N33   1.321       .  A
N32         Mn50   2.207       .  S
N33          C40   1.355       .  A
N34          N35   1.318       .  A
N34         Mn38   2.189       .  S
N35          C40   1.351       .  A
N36          N37   1.323       .  A
N36         Mn50   2.219       .  S
N37          C39   1.355       .  A
Mn38        Cl51   2.539       .  S
C39        C1813   1.486       .  S
C40        C1904   1.488       .  S
N41          N42   1.324       .  A
N41          N47   1.316       .  A
N41         Mn49   2.218       .  S
N42          C52   1.357       .  A
N43          N44   1.321       .  A
N43          N45   1.316       .  A
N43         Mn50   2.216       .  S
N44          C53   1.356       .  A
N45          N46   1.322       .  A
N45         Mn49   2.202       .  S
N46          C53   1.352       .  A
N47          N48   1.320       .  A
N47         Mn50   2.205       .  S
N48          C52   1.352       .  A
Mn49        Cl51   2.543       .  S
Mn50        Cl51   2.555       .  S
C52        C1848   1.496       .  S
C53        C1764   1.497       .  S
C54        C1652   1.626       .  S
C54        C1680   1.615       .  S
C54        C1701   1.604       .  S
C54        C1876   1.609       .  S
C55        C1561   1.622       .  S
C55        C1589   1.625       .  S
C55        C1624   1.590       .  S
C55        C1708   1.599       .  S
C56        C1512   1.628       .  S
C56        C1533   1.609       .  S
C56        C1568   1.628       .  S
C56        C1673   1.608       .  S
C57        C1477   1.616       .  S
C57        C1505   1.600       .  S
C57        C1596   1.621       .  S
C57        C1645   1.630       .  S
N58          N59   1.322       .  A
N58          N64   1.318       .  A
N58         Mn87   2.219       .  S
N59          C66   1.353       .  A
N60          N62   1.315       .  A
N60          N61   1.324       .  A
N60         Mn76   2.209   1_565  S
N61          C67   1.357       .  A
N62          N63   1.318       .  A
N62         Mn87   2.203   1_565  S
N63          C67   1.353       .  A
N64          N65   1.324       .  A
N64         Mn76   2.217       .  S
N65          C66   1.354       .  A
C66        C2324   1.490       .  S
C67        C1484   1.506       .  S
N68          N74   1.317   1_545  A
N68          N69   1.320   1_545  A
N68         Mn98   2.205       .  S
N69          C77   1.353       .  A
N70          N71   1.321       .  A
N70          N72   1.315       .  A
N70         Mn76   2.209       .  S
N71          C78   1.355       .  A
N72          N73   1.322       .  A
N72         Mn98   2.214       .  S
N73          C78   1.356       .  A
N74          N75   1.323       .  A
N74         Mn76   2.218   1_565  S
N75          C77   1.356       .  A
Mn76       Cl100   2.565       .  S
C77        C1393   1.491       .  S
C78        C1344   1.506       .  S
N79          N80   1.321       .  A
N79          N85   1.318       .  A
N79         Mn87   2.212   1_565  S
N80          C88   1.352       .  A
N81          N83   1.315       .  A
N81          N82   1.320       .  A
N81         Mn99   2.211       .  S
N82          C89   1.355       .  A
N83          N84   1.321       .  A
N83         Mn87   2.206       .  S
N84          C89   1.356       .  A
N85          N86   1.326       .  A
N85         Mn99   2.230   1_565  S
N86          C88   1.357       .  A
Mn87       Cl100   2.542       .  S
C88        C1428   1.493       .  S
C89        C2156   1.509       .  S
N90          N91   1.318       .  A
N90          N96   1.317       .  A
N90         Mn98   2.199       .  S
N91         C101   1.351       .  A
N92          N93   1.324   1_545  A
N92          N94   1.317       .  A
N92         Mn99   2.222       .  S
N93         C102   1.358       .  A
N94          N95   1.322   1_545  A
N94         Mn98   2.215       .  S
N95         C102   1.355       .  A
N96          N97   1.324       .  A
N96         Mn99   2.220       .  S
N97         C101   1.356       .  A
Mn98       Cl100   2.543       .  S
Mn99       Cl100   2.563       .  S
C101       C1449   1.491       .  S
C102       C1372   1.506       .  S
C103       C1253   1.614       .  S
C103       C1281   1.621       .  S
C103       C1309   1.608       .  S
C103       C1841   1.612       .  S
C104       C1169   1.654       .  S
C104       C1197   1.624       .  S
C104       C1225   1.604       .  S
C104       C1316   1.614       .  S
C105       C1141   1.599       .  S
C105       C1176   1.594       .  S
C105       C1260   1.638       .  S
C105       C1456   1.597       .  S
C106       C1113   1.612       .  S
C106       C1148   1.630       .  S
C106       C1204   1.652       .  S
C106       C1288   1.639       .  S
C107       C1029   1.616       .  S
C107       C1057   1.632       .  S
C107       C1085   1.599       .  S
C107       C1820   1.590       .  S
C108        C980   1.626       .  S
C108       C1008   1.611       .  S
C108       C1092   1.634       .  S
C108       C1421   1.602       .  S
C109        C917   1.628       .  S
C109        C945   1.615       .  S
C109        C973   1.614       .  S
C109       C1036   1.634       .  S
C110        C889   1.617       .  S
C110        C924   1.602       .  S
C110       C1001   1.628       .  S
C110       C1064   1.628       .  S
C111        C805   1.625       .  S
C111        C833   1.616       .  S
C111        C861   1.609       .  S
C111       C1400   1.610       .  S
C112        C721   1.611       .  S
C112        C749   1.620       .  S
C112        C784   1.605       .  S
C112        C868   1.625       .  S
C113        C693   1.602       .  S
C113        C728   1.629       .  S
C113        C812   1.631       .  S
C113       C1792   1.614       .  S
C114        C665   1.614       .  S
C114        C700   1.621       .  S
C114        C756   1.608       .  S
C114        C840   1.632       .  S
C115        C581   1.627       .  S
C115        C609   1.614       .  S
C115        C637   1.611       .  S
C115       C1757   1.620       .  S
C116        C497   1.633       .  S
C116        C532   1.666       .  S
C116        C553   1.593       .  S
C116        C616   1.628       .  S
C117        C469   1.671       .  S
C117        C504   1.611       .  S
C117        C588   1.611       .  S
C117       C1365   1.620       .  S
C118        C441   1.596       .  S
C118        C476   1.628       .  S
C118        C525   1.495       .  S
C118        C644   1.551       .  S
N119        N120   1.321       .  A
N119        N125   1.314       .  A
N119       Mn148   2.215       .  S
N120        C127   1.357       .  A
N121        N123   1.317       .  A
N121        N122   1.322       .  A
N121       Mn137   2.209   1_654  S
N122        C128   1.352       .  A
N123        N124   1.322       .  A
N123       Mn148   2.212   1_655  S
N124        C128   1.353       .  A
N125        N126   1.321       .  A
N125       Mn137   2.201   1_554  S
N126        C127   1.355       .  A
C127       C2240   1.509       .  S
C128        C413   1.485       .  S
N129        N135   1.318       .  A
N129        N130   1.323       .  A
N129       Mn159   2.219   1_655  S
N130        C138   1.356       .  A
N131        N132   1.320       .  A
N131        N133   1.316       .  A
N131       Mn137   2.199       .  S
N132        C139   1.353       .  A
N133        N134   1.321       .  A
N133       Mn159   2.217       .  S
N134        C139   1.357       .  A
N135        N136   1.318       .  A
N135       Mn137   2.196   1_655  S
N136        C138   1.350       .  A
Mn137      Cl161   2.543       .  S
C138       C1120   1.489       .  S
C139       C2044   1.504       .  S
N140        N141   1.323       .  A
N140        N146   1.317       .  A
N140       Mn148   2.220   1_665  S
N141        C149   1.356       .  A
N142        N144   1.317       .  A
N142        N143   1.321       .  A
N142       Mn160   2.209   1_554  S
N143        C150   1.353       .  A
N144        N145   1.323       .  A
N144       Mn148   2.214   1_565  S
N145        C150   1.354       .  A
N146        N147   1.321       .  A
N146       Mn160   2.205   1_654  S
N147        C149   1.353       .  A
Mn148      Cl161   2.562   1_554  S
C149        C672   1.495       .  S
C150       C1617   1.487       .  S
N151        N152   1.326       .  A
N151        N157   1.318       .  A
N151       Mn159   2.234   1_565  S
N152        C162   1.358       .  A
N153        N154   1.320       .  A
N153        N155   1.315       .  A
N153       Mn160   2.207   1_655  S
N154        C163   1.355       .  A
N155        N156   1.325       .  A
N155       Mn159   2.227   1_665  S
N156        C163   1.360       .  A
N157        N158   1.321       .  A
N157       Mn160   2.207       .  S
N158        C162   1.352       .  A
Mn159      Cl161   2.563       .  S
Mn160      Cl161   2.546   1_565  S
C162        C896   1.497       .  S
C163        C448   1.516       .  S
C164        C329   1.618       .  S
C164        C357   1.603       .  S
C164        C385   1.631       .  S
C164       C1337   1.614       .  S
C165        C273   1.631       .  S
C165        C308   1.624       .  S
C165        C392   1.596       .  S
C165        C420   1.617       .  S
C166        C245   1.619       .  S
C166        C280   1.626       .  S
C166        C336   1.603       .  S
C166       C1736   1.599       .  S
C167        C217   1.588       .  S
C167        C252   1.629       .  S
C167        C301   1.606       .  S
C167        C364   1.625       .  S
N168        N169   1.319       .  A
N168        N174   1.317       .  A
N168       Mn197   2.200       .  S
N169        C176   1.353       .  A
N170        N172   1.317       .  A
N170        N171   1.318       .  A
N170       Mn186   2.193   1_655  S
N171        C177   1.349       .  A
N172        N173   1.322       .  A
N172       Mn197   2.208   1_655  S
N173        C177   1.352       .  A
N174        N175   1.320       .  A
N174       Mn186   2.207       .  S
N175        C176   1.354       .  A
C176       C2184   1.496       .  S
C177        C224   1.475       .  S
N178        N184   1.316       .  A
N178        N179   1.323       .  A
N178       Mn208   2.219   1_655  S
N179        C187   1.354       .  A
N180        N181   1.319       .  A
N180        N182   1.315       .  A
N180       Mn186   2.200       .  S
N181        C188   1.353       .  A
N182        N183   1.320       .  A
N182       Mn208   2.202       .  S
N183        C188   1.355       .  A
N184        N185   1.324       .  A
N184       Mn186   2.215   1_655  S
N185        C187   1.355       .  A
Mn186      Cl210   2.544       .  S
C187       C1232   1.491       .  S
C188       C1953   1.494       .  S
N189        N190   1.321       .  A
N189        N195   1.314       .  A
N189       Mn197   2.206   1_655  S
N190        C198   1.356       .  A
N191        N193   1.317       .  A
N191        N192   1.320       .  A
N191       Mn209   2.200       .  S
N192        C199   1.351       .  A
N193        N194   1.323       .  A
N193       Mn197   2.219       .  S
N194        C199   1.355       .  A
N195        N196   1.322       .  A
N195       Mn209   2.215   1_655  S
N196        C198   1.357       .  A
Mn197      Cl210   2.552       .  S
C198        C777   1.513       .  S
C199       C1540   1.485       .  S
N200        N201   1.324       .  A
N200        N206   1.317       .  A
N200       Mn208   2.226       .  S
N201        C211   1.358       .  A
N202        N203   1.318       .  A
N202        N204   1.314       .  A
N202       Mn209   2.191   1_655  S
N203        C212   1.352       .  A
N204        N205   1.319       .  A
N204       Mn208   2.188   1_655  S
N205        C212   1.351       .  A
N206        N207   1.324       .  A
N206       Mn209   2.224       .  S
N207        C211   1.357       .  A
Mn208      Cl210   2.554       .  S
Mn209      Cl210   2.545       .  S
C211        C952   1.513       .  S
C212        C560   1.479       .  S
C213        C214   1.400       .  A
C213        C218   1.416       .  A
C213        C231   1.456       .  S
C214        C219   1.496       .  S
C214        C215   1.399       .  A
C215        C216   1.413       .  A
C215        C220   1.454       .  S
C216        C217   1.444       .  A
C216        C232   1.449       .  S
C217        C218   1.445       .  A
C218        C221   1.448       .  S
C219        C222   1.412       .  A
C219        C226   1.413       .  A
C220        N237   1.157       .  T
C221        N239   1.158       .  T
C222        C223   1.408       .  A
C222        C227   1.451       .  S
C223        C224   1.411       .  A
C223        C229   1.452       .  S
C224        C225   1.408       .  A
C225        C226   1.410       .  A
C225        C228   1.451       .  S
C226        C230   1.449       .  S
C227        N234   1.157       .  T
C228        N235   1.157       .  T
C229        N233   1.157   1_655  T
C230        N236   1.157       .  T
C231        N240   1.157       .  T
C232        N238   1.157       .  T
C241        C242   1.412       .  A
C241        C246   1.422       .  A
C241        C259   1.451       .  S
C242        C247   1.523       .  S
C242        C243   1.411       .  A
C243        C244   1.420       .  A
C243        C248   1.449       .  S
C244        C245   1.442       .  A
C244        C260   1.452       .  S
C245        C246   1.428       .  A
C246        C249   1.443       .  S
C247        C250   1.410       .  A
C247        C254   1.406       .  A
C248        N265   1.158       .  T
C249        N267   1.158       .  T
C250        C251   1.431       .  A
C250        C255   1.452       .  S
C251        C252   1.444       .  A
C251        C257   1.446       .  S
C252        C253   1.437       .  A
C253        C254   1.404       .  A
C253        C256   1.454       .  S
C254        C258   1.440       .  S
C255        N262   1.157       .  T
C256        N263   1.158       .  T
C257        N261   1.157       .  T
C258        N264   1.153       .  T
C259        N268   1.157       .  T
C260        N266   1.157       .  T
C269        C270   1.403       .  A
C269        C274   1.420       .  A
C269        C287   1.452       .  S
C270        C275   1.529       .  S
C270        C271   1.405       .  A
C271        C272   1.431       .  A
C271        C276   1.453       .  S
C272        C273   1.446       .  A
C272        C288   1.438       .  S
C273        C274   1.448       .  A
C274        C277   1.448       .  S
C275        C278   1.407       .  A
C275        C282   1.413       .  A
C276        N293   1.158       .  T
C277        N295   1.157       .  T
C278        C279   1.410       .  A
C278        C283   1.440       .  S
C279        C280   1.435       .  A
C279        C285   1.452       .  S
C280        C281   1.435       .  A
C281        C282   1.432       .  A
C281        C284   1.448       .  S
C282        C286   1.448       .  S
C283        N290   1.151       .  T
C284        N291   1.158       .  T
C285        N289   1.157       .  T
C286        N292   1.157       .  T
C287        N296   1.157       .  T
C288        N294   1.157       .  T
C297        C298   1.411       .  A
C297        C302   1.436       .  A
C297        C315   1.449       .  S
C298        C303   1.520       .  S
C298        C299   1.403       .  A
C299        C300   1.386       .  A
C299        C304   1.449       .  S
C300        C301   1.433       .  A
C300        C316   1.440       .  S
C301        C302   1.449       .  A
C302        C305   1.446       .  S
C303        C306   1.390       .  A
C303        C310   1.411       .  A
C304        N321   1.157       .  T
C305        N323   1.157       .  T
C306        C307   1.416       .  A
C306        C311   1.454       .  S
C307        C308   1.468       .  A
C307        C313   1.455       .  S
C308        C309   1.423       .  A
C309        C310   1.429       .  A
C309        C312   1.446       .  S
C310        C314   1.444       .  S
C311        N318   1.157       .  T
C312        N319   1.157       .  T
C313        N317   1.158       .  T
C314        N320   1.157       .  T
C315        N324   1.157       .  T
C316        N322   1.151       .  T
C325        C326   1.385       .  A
C325        C330   1.412       .  A
C325        C343   1.451       .  S
C326        C331   1.518       .  S
C326        C327   1.409       .  A
C327        C328   1.432       .  A
C327        C332   1.445       .  S
C328        C329   1.426       .  A
C328        C344   1.448       .  S
C329        C330   1.467       .  A
C330        C333   1.456       .  S
C331        C334   1.407       .  A
C331        C338   1.409       .  A
C332        N349   1.157       .  T
C333        N351   1.158       .  T
C334        C335   1.389       .  A
C334        C339   1.447       .  S
C335        C336   1.432       .  A
C335        C341   1.442       .  S
C336        C337   1.443       .  A
C337        C338   1.430       .  A
C337        C340   1.444       .  S
C338        C342   1.448       .  S
C339        N346   1.157       .  T
C340        N347   1.156       .  T
C341        N345   1.152       .  T
C342        N348   1.157       .  T
C343        N352   1.157       .  T
C344        N350   1.157       .  T
C353        C354   1.396       .  A
C353        C358   1.405       .  A
C353        C371   1.449       .  S
C354        C359   1.517       .  S
C354        C355   1.409       .  A
C355        C356   1.434       .  A
C355        C360   1.450       .  S
C356        C357   1.444       .  A
C356        C372   1.444       .  S
C357        C358   1.444       .  A
C358        C361   1.450       .  S
C359        C362   1.408       .  A
C359        C366   1.404       .  A
C360        N377   1.157       .  T
C361        N379   1.155       .  T
C362        C363   1.423       .  A
C362        C367   1.451       .  S
C363        C364   1.432       .  A
C363        C369   1.441       .  S
C364        C365   1.448       .  A
C365        C366   1.418       .  A
C365        C368   1.454       .  S
C366        C370   1.450       .  S
C367        N374   1.157       .  T
C368        N375   1.158       .  T
C369        N373   1.157       .  T
C370        N376   1.157       .  T
C371        N380   1.157       .  T
C372        N378   1.158       .  T
C381        C382   1.395       .  A
C381        C386   1.426       .  A
C381        C399   1.457       .  S
C382        C387   1.509       .  S
C382        C383   1.396       .  A
C383        C384   1.417       .  A
C383        C388   1.453       .  S
C384        C385   1.454       .  A
C384        C400   1.448       .  S
C385        C386   1.454       .  A
C386        C389   1.435       .  S
C387        C390   1.395       .  A
C387        C394   1.409       .  A
C388        N405   1.157       .  T
C389        N407   1.157       .  T
C390        C391   1.400       .  A
C390        C395   1.449       .  S
C391        C392   1.447       .  A
C391        C397   1.453       .  S
C392        C393   1.440       .  A
C393        C394   1.431       .  A
C393        C396   1.444       .  S
C394        C398   1.450       .  S
C395        N402   1.154       .  T
C396        N403   1.158       .  T
C397        N401   1.156       .  T
C398        N404   1.157       .  T
C399        N408   1.158       .  T
C400        N406   1.157       .  T
C409        C410   1.412       .  A
C409        C414   1.415       .  A
C409        C427   1.449       .  S
C410        C415   1.505       .  S
C410        C411   1.413       .  A
C411        C412   1.411       .  A
C411        C416   1.451       .  S
C412        C413   1.412       .  A
C412        C428   1.452       .  S
C413        C414   1.411       .  A
C414        C417   1.449       .  S
C415        C418   1.396       .  A
C415        C422   1.397       .  A
C416        N433   1.157       .  T
C417        N435   1.157       .  T
C418        C419   1.419       .  A
C418        C423   1.457       .  S
C419        C420   1.446       .  A
C419        C425   1.441       .  S
C420        C421   1.458       .  A
C421        C422   1.421       .  A
C421        C424   1.452       .  S
C422        C426   1.455       .  S
C423        N430   1.157       .  T
C424        N431   1.158       .  T
C425        N429   1.158       .  T
C426        N432   1.157       .  T
C427        N436   1.157       .  T
C428        N434   1.158       .  T
C437        C438   1.400       .  A
C437        C442   1.415       .  A
C437        C455   1.455       .  S
C438        C443   1.510       .  S
C438        C439   1.403       .  A
C439        C440   1.421       .  A
C439        C444   1.454       .  S
C440        C441   1.438       .  A
C440        C456   1.445       .  S
C441        C442   1.452       .  A
C442        C445   1.454       .  S
C443        C446   1.412       .  A
C443        C450   1.407       .  A
C444        N461   1.157       .  T
C445        N463   1.158       .  T
C446        C447   1.417       .  A
C446        C451   1.452       .  S
C447        C448   1.424       .  A
C447        C453   1.450       .  S
C448        C449   1.426       .  A
C449        C450   1.415       .  A
C449        C452   1.451       .  S
C450        C454   1.451       .  S
C451        N458   1.157       .  T
C452        N459   1.158       .  T
C453        N457   1.158       .  T
C454        N460   1.157       .  T
C455        N464   1.157       .  T
C456        N462   1.156       .  T
C465        C466   1.406       .  A
C465        C470   1.424       .  A
C465        C483   1.444       .  S
C466        C471   1.531       .  S
C466        C467   1.395       .  A
C467        C468   1.435       .  A
C467        C472   1.451       .  S
C468        C469   1.470       .  A
C468        C484   1.434       .  S
C469        C470   1.435       .  A
C470        C473   1.449       .  S
C471        C474   1.396       .  A
C471        C478   1.425       .  A
C472        N489   1.157       .  T
C473        N491   1.158       .  T
C474        C475   1.397       .  A
C474        C479   1.439       .  S
C475        C476   1.426       .  A
C475        C481   1.437       .  S
C476        C477   1.434       .  A
C477        C478   1.449       .  A
C477        C480   1.445       .  S
C478        C482   1.445       .  S
C479        N486   1.154       .  T
C480        N487   1.157       .  T
C481        N485   1.157       .  T
C482        N488   1.157       .  T
C483        N492   1.157       .  T
C484        N490   1.158       .  T
C493        C494   1.389       .  A
C493        C498   1.393       .  A
C493        C511   1.441       .  S
C494        C499   1.532       .  S
C494        C495   1.418       .  A
C495        C496   1.445       .  A
C495        C500   1.443       .  S
C496        C497   1.450       .  A
C496        C512   1.447       .  S
C497        C498   1.450       .  A
C498        C501   1.449       .  S
C499        C502   1.416       .  A
C499        C506   1.405       .  A
C500        N517   1.157       .  T
C501        N519   1.153       .  T
C502        C503   1.438       .  A
C502        C507   1.445       .  S
C503        C504   1.433       .  A
C503        C509   1.452       .  S
C504        C505   1.438       .  A
C505        C506   1.417       .  A
C505        C508   1.447       .  S
C506        C510   1.451       .  S
C507        N514   1.157       .  T
C508        N515   1.157       .  T
C509        N513   1.157       .  T
C510        N516   1.157       .  T
C511        N520   1.154       .  T
C512        N518   1.158       .  T
C521        C522   1.882       .  A
C521        C526   1.877       .  A
C521        C539   1.437       .  S
C522        C527   1.537       .  S
C522        C523   1.830       .  A
C523        C524   1.765       .  A
C523        C528   1.416       .  S
C524        C525   1.801       .  A
C524        C540   1.443       .  S
C525        C526   1.917       .  A
C526        C529   1.437       .  S
C527        C530   1.399       .  A
C527        C534   1.435       .  A
C528        N545   1.149       .  T
C529        N547   1.157       .  T
C530        C531   1.390       .  A
C530        C535   1.428       .  S
C531        C532   1.397       .  A
C531        C537   1.460       .  S
C532        C533   1.469       .  A
C533        C534   1.470       .  A
C533        C536   1.451       .  S
C534        C538   1.446       .  S
C535        N542   1.150       .  T
C536        N543   1.158       .  T
C537        N541   1.158       .  T
C538        N544   1.157       .  T
C539        N548   1.157       .  T
C540        N546   1.156       .  T
C549        C550   1.394       .  A
C549        C554   1.412       .  A
C549        C567   1.457       .  S
C550        C555   1.489       .  S
C550        C551   1.397       .  A
C551        C552   1.414       .  A
C551        C556   1.454       .  S
C552        C553   1.451       .  A
C552        C568   1.459       .  S
C553        C554   1.443       .  A
C554        C557   1.444       .  S
C555        C558   1.408       .  A
C555        C562   1.409       .  A
C556        N573   1.157       .  T
C557        N575   1.157       .  T
C558        C559   1.406       .  A
C558        C563   1.451       .  S
C559        C560   1.415       .  A
C559        C565   1.452       .  S
C560        C561   1.414       .  A
C561        C562   1.408       .  A
C561        C564   1.450       .  S
C562        C566   1.451       .  S
C563        N570   1.157       .  T
C564        N571   1.157       .  T
C565        N569   1.157       .  T
C566        N572   1.157       .  T
C567        N576   1.157       .  T
C568        N574   1.159       .  T
C577        C578   1.409       .  A
C577        C582   1.429       .  A
C577        C595   1.453       .  S
C578        C583   1.519       .  S
C578        C579   1.406       .  A
C579        C580   1.424       .  A
C579        C584   1.449       .  S
C580        C581   1.445       .  A
C580        C596   1.451       .  S
C581        C582   1.444       .  A
C582        C585   1.441       .  S
C583        C586   1.422       .  A
C583        C590   1.399       .  A
C584        N601   1.157       .  T
C585        N603   1.158       .  T
C586        C587   1.447       .  A
C586        C591   1.447       .  S
C587        C588   1.466       .  A
C587        C593   1.449       .  S
C588        C589   1.414       .  A
C589        C590   1.404       .  A
C589        C592   1.447       .  S
C590        C594   1.440       .  S
C591        N598   1.157       .  T
C592        N599   1.159       .  T
C593        N597   1.158       .  T
C594        N600   1.157       .  T
C595        N604   1.157       .  T
C596        N602   1.157       .  T
C605        C606   1.404       .  A
C605        C610   1.398       .  A
C605        C623   1.455       .  S
C606        C611   1.508       .  S
C606        C607   1.412       .  A
C607        C608   1.428       .  A
C607        C612   1.448       .  S
C608        C609   1.430       .  A
C608        C624   1.447       .  S
C609        C610   1.445       .  A
C610        C613   1.450       .  S
C611        C614   1.408       .  A
C611        C618   1.407       .  A
C612        N629   1.157       .  T
C613        N631   1.157       .  T
C614        C615   1.412       .  A
C614        C619   1.449       .  S
C615        C616   1.425       .  A
C615        C621   1.448       .  S
C616        C617   1.444       .  A
C617        C618   1.422       .  A
C617        C620   1.446       .  S
C618        C622   1.451       .  S
C619        N626   1.157       .  T
C620        N627   1.157       .  T
C621        N625   1.158       .  T
C622        N628   1.157       .  T
C623        N632   1.156       .  T
C624        N630   1.156       .  T
C633        C634   1.380       .  A
C633        C638   1.384       .  A
C633        C651   1.435       .  S
C634        C639   1.532       .  S
C634        C635   1.426       .  A
C635        C636   1.446       .  A
C635        C640   1.447       .  S
C636        C637   1.443       .  A
C636        C652   1.443       .  S
C637        C638   1.436       .  A
C638        C641   1.435       .  S
C639        C642   1.392       .  A
C639        C646   1.447       .  A
C640        N657   1.157       .  T
C641        N659   1.152       .  T
C642        C643   1.385       .  A
C642        C647   1.450       .  S
C643        C644   1.412       .  A
C643        C649   1.446       .  S
C644        C645   1.537       .  A
C645        C646   1.534       .  A
C645        C648   2.734       .  S
C646        C650   1.453       .  S
C647        N654   1.157       .  T
C648        N655   1.161       .  T
C649        N653   1.158       .  T
C650        N656   1.156       .  T
C651        N660   1.155       .  T
C652        N658   1.158       .  T
C661        C662   1.395       .  A
C661        C666   1.420       .  A
C661        C679   1.457       .  S
C662        C667   1.504       .  S
C662        C663   1.397       .  A
C663        C664   1.420       .  A
C663        C668   1.456       .  S
C664        C665   1.443       .  A
C664        C680   1.442       .  S
C665        C666   1.460       .  A
C666        C669   1.451       .  S
C667        C670   1.411       .  A
C667        C674   1.409       .  A
C668        N685   1.157       .  T
C669        N687   1.158       .  T
C670        C671   1.413       .  A
C670        C675   1.450       .  S
C671        C672   1.415       .  A
C671        C677   1.451       .  S
C672        C673   1.419       .  A
C673        C674   1.413       .  A
C673        C676   1.450       .  S
C674        C678   1.451       .  S
C675        N682   1.157       .  T
C676        N683   1.157       .  T
C677        N681   1.157   1_565  T
C678        N684   1.157       .  T
C679        N688   1.157       .  T
C680        N686   1.157       .  T
C689        C690   1.409       .  A
C689        C694   1.433       .  A
C689        C707   1.451       .  S
C690        C695   1.513       .  S
C690        C691   1.394       .  A
C691        C692   1.403       .  A
C691        C696   1.447       .  S
C692        C693   1.446       .  A
C692        C708   1.450       .  S
C693        C694   1.444       .  A
C694        C697   1.445       .  S
C695        C698   1.398       .  A
C695        C702   1.402       .  A
C696        N713   1.155       .  T
C697        N715   1.158       .  T
C698        C699   1.426       .  A
C698        C703   1.453       .  S
C699        C700   1.443       .  A
C699        C705   1.440       .  S
C700        C701   1.445       .  A
C701        C702   1.418       .  A
C701        C704   1.448       .  S
C702        C706   1.451       .  S
C703        N710   1.158       .  T
C704        N711   1.157       .  T
C705        N709   1.158       .  T
C706        N712   1.157       .  T
C707        N716   1.157       .  T
C708        N714   1.155       .  T
C717        C718   1.403       .  A
C717        C722   1.387       .  A
C717        C735   1.449       .  S
C718        C723   1.527       .  S
C718        C719   1.414       .  A
C719        C720   1.441       .  A
C719        C724   1.448       .  S
C720        C721   1.447       .  A
C720        C736   1.443       .  S
C721        C722   1.435       .  A
C722        C725   1.439       .  S
C723        C726   1.389       .  A
C723        C730   1.411       .  A
C724        N741   1.157       .  T
C725        N743   1.151       .  T
C726        C727   1.416       .  A
C726        C731   1.453       .  S
C727        C728   1.467       .  A
C727        C733   1.450       .  S
C728        C729   1.428       .  A
C729        C730   1.433       .  A
C729        C732   1.445       .  S
C730        C734   1.445       .  S
C731        N738   1.157       .  T
C732        N739   1.157       .  T
C733        N737   1.158       .  T
C734        N740   1.157       .  T
C735        N744   1.157       .  T
C736        N742   1.157       .  T
C745        C746   1.412       .  A
C745        C750   1.421       .  A
C745        C763   1.449       .  S
C746        C751   1.517       .  S
C746        C747   1.410       .  A
C747        C748   1.419       .  A
C747        C752   1.450       .  S
C748        C749   1.444       .  A
C748        C764   1.455       .  S
C749        C750   1.425       .  A
C750        C753   1.443       .  S
C751        C754   1.414       .  A
C751        C758   1.391       .  A
C752        N769   1.157       .  T
C753        N771   1.158       .  T
C754        C755   1.438       .  A
C754        C759   1.450       .  S
C755        C756   1.445       .  A
C755        C761   1.445       .  S
C756        C757   1.438       .  A
C757        C758   1.398       .  A
C757        C760   1.442       .  S
C758        C762   1.445       .  S
C759        N766   1.157       .  T
C760        N767   1.153       .  T
C761        N765   1.158       .  T
C762        N768   1.154       .  T
C763        N772   1.157       .  T
C764        N770   1.158       .  T
C773        C774   1.410       .  A
C773        C778   1.416       .  A
C773        C791   1.451       .  S
C774        C779   1.511       .  S
C774        C775   1.410       .  A
C775        C776   1.416       .  A
C775        C780   1.450       .  S
C776        C777   1.424       .  A
C776        C792   1.452       .  S
C777        C778   1.425       .  A
C778        C781   1.451       .  S
C779        C782   1.400       .  A
C779        C786   1.401       .  A
C780        N797   1.157       .  T
C781        N799   1.158       .  T
C782        C783   1.420       .  A
C782        C787   1.457       .  S
C783        C784   1.449       .  A
C783        C789   1.448       .  S
C784        C785   1.447       .  A
C785        C786   1.423       .  A
C785        C788   1.448       .  S
C786        C790   1.453       .  S
C787        N794   1.157       .  T
C788        N795   1.157       .  T
C789        N793   1.158       .  T
C790        N796   1.157       .  T
C791        N800   1.157       .  T
C792        N798   1.158       .  T
C801        C802   1.409       .  A
C801        C806   1.401       .  A
C801        C819   1.449       .  S
C802        C807   1.522       .  S
C802        C803   1.420       .  A
C803        C804   1.434       .  A
C803        C808   1.447       .  S
C804        C805   1.426       .  A
C804        C820   1.448       .  S
C805        C806   1.425       .  A
C806        C809   1.448       .  S
C807        C810   1.399       .  A
C807        C814   1.400       .  A
C808        N825   1.157       .  T
C809        N827   1.158       .  T
C810        C811   1.430       .  A
C810        C815   1.455       .  S
C811        C812   1.450       .  A
C811        C817   1.436       .  S
C812        C813   1.452       .  A
C813        C814   1.417       .  A
C813        C816   1.448       .  S
C814        C818   1.455       .  S
C815        N822   1.158       .  T
C816        N823   1.157       .  T
C817        N821   1.156       .  T
C818        N824   1.157       .  T
C819        N828   1.156       .  T
C820        N826   1.158       .  T
C829        C830   1.411       .  A
C829        C834   1.443       .  A
C829        C847   1.447       .  S
C830        C835   1.508       .  S
C830        C831   1.374       .  A
C831        C832   1.389       .  A
C831        C836   1.434       .  S
C832        C833   1.435       .  A
C832        C848   1.443       .  S
C833        C834   1.451       .  A
C834        C837   1.442       .  S
C835        C838   1.398       .  A
C835        C842   1.411       .  A
C836        N853   1.153       .  T
C837        N855   1.156       .  T
C838        C839   1.416       .  A
C838        C843   1.453       .  S
C839        C840   1.460       .  A
C839        C845   1.455       .  S
C840        C841   1.423       .  A
C841        C842   1.429       .  A
C841        C844   1.448       .  S
C842        C846   1.445       .  S
C843        N850   1.157       .  T
C844        N851   1.158       .  T
C845        N849   1.158       .  T
C846        N852   1.157       .  T
C847        N856   1.157       .  T
C848        N854   1.154       .  T
C857        C858   1.412       .  A
C857        C862   1.420       .  A
C857        C875   1.453       .  S
C858        C863   1.526       .  S
C858        C859   1.412       .  A
C859        C860   1.419       .  A
C859        C864   1.449       .  S
C860        C861   1.440       .  A
C860        C876   1.451       .  S
C861        C862   1.432       .  A
C862        C865   1.445       .  S
C863        C866   1.407       .  A
C863        C870   1.414       .  A
C864        N881   1.158       .  T
C865        N883   1.158       .  T
C866        C867   1.405       .  A
C866        C871   1.442       .  S
C867        C868   1.435       .  A
C867        C873   1.454       .  S
C868        C869   1.437       .  A
C869        C870   1.432       .  A
C869        C872   1.446       .  S
C870        C874   1.449       .  S
C871        N878   1.153       .  T
C872        N879   1.158       .  T
C873        N877   1.158       .  T
C874        N880   1.157       .  T
C875        N884   1.157       .  T
C876        N882   1.158       .  T
C885        C886   1.395       .  A
C885        C890   1.419       .  A
C885        C903   1.458       .  S
C886        C891   1.507       .  S
C886        C887   1.397       .  A
C887        C888   1.423       .  A
C887        C892   1.456       .  S
C888        C889   1.458       .  A
C888        C904   1.451       .  S
C889        C890   1.450       .  A
C890        C893   1.444       .  S
C891        C894   1.409       .  A
C891        C898   1.412       .  A
C892        N909   1.157       .  T
C893        N911   1.158       .  T
C894        C895   1.414       .  A
C894        C899   1.450       .  S
C895        C896   1.419       .  A
C895        C901   1.450       .  S
C896        C897   1.414       .  A
C897        C898   1.415       .  A
C897        C900   1.448       .  S
C898        C902   1.450       .  S
C899        N906   1.157       .  T
C900        N907   1.157   1_565  T
C901        N905   1.157       .  T
C902        N908   1.157       .  T
C903        N912   1.157       .  T
C904        N910   1.158       .  T
C913        C914   1.400       .  A
C913        C918   1.420       .  A
C913        C931   1.450       .  S
C914        C919   1.512       .  S
C914        C915   1.401       .  A
C915        C916   1.426       .  A
C915        C920   1.455       .  S
C916        C917   1.445       .  A
C916        C932   1.438       .  S
C917        C918   1.446       .  A
C918        C921   1.447       .  S
C919        C922   1.411       .  A
C919        C926   1.388       .  A
C920        N937   1.157       .  T
C921        N939   1.157       .  T
C922        C923   1.436       .  A
C922        C927   1.448       .  S
C923        C924   1.444       .  A
C923        C929   1.445       .  S
C924        C925   1.440       .  A
C925        C926   1.397       .  A
C925        C928   1.444       .  S
C926        C930   1.445       .  S
C927        N934   1.157       .  T
C928        N935   1.153       .  T
C929        N933   1.158       .  T
C930        N936   1.152       .  T
C931        N940   1.157       .  T
C932        N938   1.158       .  T
C941        C942   1.401       .  A
C941        C946   1.424       .  A
C941        C959   1.455       .  S
C942        C947   1.517       .  S
C942        C943   1.399       .  A
C943        C944   1.423       .  A
C943        C948   1.456       .  S
C944        C945   1.445       .  A
C944        C960   1.444       .  S
C945        C946   1.456       .  A
C946        C949   1.452       .  S
C947        C950   1.412       .  A
C947        C954   1.413       .  A
C948        N965   1.157       .  T
C949        N967   1.158       .  T
C950        C951   1.419       .  A
C950        C955   1.451       .  S
C951        C952   1.423       .  A
C951        C957   1.450       .  S
C952        C953   1.420       .  A
C953        C954   1.418       .  A
C953        C956   1.451       .  S
C954        C958   1.450       .  S
C955        N962   1.157       .  T
C956        N963   1.158       .  T
C957        N961   1.157       .  T
C958        N964   1.157       .  T
C959        N968   1.157       .  T
C960        N966   1.157       .  T
C969        C970   1.408       .  A
C969        C974   1.438       .  A
C969        C987   1.449       .  S
C970        C975   1.519       .  S
C970        C971   1.388       .  A
C971        C972   1.403       .  A
C971        C976   1.442       .  S
C972        C973   1.440       .  A
C972        C988   1.442       .  S
C973        C974   1.450       .  A
C974        C977   1.446       .  S
C975        C978   1.402       .  A
C975        C982   1.406       .  A
C976        N993   1.154       .  T
C977        N995   1.158       .  T
C978        C979   1.422       .  A
C978        C983   1.451       .  S
C979        C980   1.446       .  A
C979        C985   1.447       .  S
C980        C981   1.441       .  A
C981        C982   1.426       .  A
C981        C984   1.443       .  S
C982        C986   1.451       .  S
C983        N990   1.157       .  T
C984        N991   1.158       .  T
C985        N989   1.157       .  T
C986        N992   1.157       .  T
C987        N996   1.157       .  T
C988        N994   1.153       .  T
C997        C998   1.409       .  A
C997       C1002   1.427       .  A
C997       C1015   1.446       .  S
C998       C1003   1.507       .  S
C998        C999   1.394       .  A
C999       C1000   1.415       .  A
C999       C1004   1.451       .  S
C1000      C1001   1.464       .  A
C1000      C1016   1.457       .  S
C1001      C1002   1.431       .  A
C1002      C1005   1.449       .  S
C1003      C1006   1.379       .  A
C1003      C1010   1.415       .  A
C1004      N1021   1.156       .  T
C1005      N1023   1.158       .  T
C1006      C1007   1.391       .  A
C1006      C1011   1.441       .  S
C1007      C1008   1.429       .  A
C1007      C1013   1.434       .  S
C1008      C1009   1.450       .  A
C1009      C1010   1.443       .  A
C1009      C1012   1.446       .  S
C1010      C1014   1.447       .  S
C1011      N1018   1.155       .  T
C1012      N1019   1.157       .  T
C1013      N1017   1.151       .  T
C1014      N1020   1.157       .  T
C1015      N1024   1.157       .  T
C1016      N1022   1.159       .  T
C1025      C1026   1.421       .  A
C1025      C1030   1.447       .  A
C1025      C1043   1.447       .  S
C1026      C1031   1.513       .  S
C1026      C1027   1.391       .  A
C1027      C1028   1.388       .  A
C1027      C1032   1.438       .  S
C1028      C1029   1.408       .  A
C1028      C1044   1.436       .  S
C1029      C1030   1.459       .  A
C1030      C1033   1.448       .  S
C1031      C1034   1.402       .  A
C1031      C1038   1.397       .  A
C1032      N1049   1.156       .  T
C1033      N1051   1.158       .  T
C1034      C1035   1.430       .  A
C1034      C1039   1.447       .  S
C1035      C1036   1.435       .  A
C1035      C1041   1.447       .  S
C1036      C1037   1.461       .  A
C1037      C1038   1.420       .  A
C1037      C1040   1.452       .  S
C1038      C1042   1.452       .  S
C1039      N1046   1.157       .  T
C1040      N1047   1.159       .  T
C1041      N1045   1.158       .  T
C1042      N1048   1.157       .  T
C1043      N1052   1.157       .  T
C1044      N1050   1.154       .  T
C1053      C1054   1.413       .  A
C1053      C1058   1.445       .  A
C1053      C1071   1.448       .  S
C1054      C1059   1.520       .  S
C1054      C1055   1.384       .  A
C1055      C1056   1.389       .  A
C1055      C1060   1.437       .  S
C1056      C1057   1.425       .  A
C1056      C1072   1.432       .  S
C1057      C1058   1.456       .  A
C1058      C1061   1.446       .  S
C1059      C1062   1.405       .  A
C1059      C1066   1.403       .  A
C1060      N1077   1.152       .  T
C1061      N1079   1.158       .  T
C1062      C1063   1.428       .  A
C1062      C1067   1.451       .  S
C1063      C1064   1.441       .  A
C1063      C1069   1.440       .  S
C1064      C1065   1.447       .  A
C1065      C1066   1.424       .  A
C1065      C1068   1.449       .  S
C1066      C1070   1.449       .  S
C1067      N1074   1.157       .  T
C1068      N1075   1.157       .  T
C1069      N1073   1.158       .  T
C1070      N1076   1.157       .  T
C1071      N1080   1.157       .  T
C1072      N1078   1.152       .  T
C1081      C1082   1.415       .  A
C1081      C1086   1.422       .  A
C1081      C1099   1.448       .  S
C1082      C1087   1.535       .  S
C1082      C1083   1.414       .  A
C1083      C1084   1.422       .  A
C1083      C1088   1.452       .  S
C1084      C1085   1.433       .  A
C1084      C1100   1.446       .  S
C1085      C1086   1.429       .  A
C1086      C1089   1.445       .  S
C1087      C1090   1.417       .  A
C1087      C1094   1.421       .  A
C1088      N1105   1.157       .  T
C1089      N1107   1.157       .  T
C1090      C1091   1.408       .  A
C1090      C1095   1.449       .  S
C1091      C1092   1.431       .  A
C1091      C1097   1.449       .  S
C1092      C1093   1.425       .  A
C1093      C1094   1.434       .  A
C1093      C1096   1.444       .  S
C1094      C1098   1.448       .  S
C1095      N1102   1.156       .  T
C1096      N1103   1.156       .  T
C1097      N1101   1.158       .  T
C1098      N1104   1.157       .  T
C1099      N1108   1.158       .  T
C1100      N1106   1.157       .  T
C1109      C1110   1.401       .  A
C1109      C1114   1.418       .  A
C1109      C1127   1.454       .  S
C1110      C1115   1.498       .  S
C1110      C1111   1.398       .  A
C1111      C1112   1.412       .  A
C1111      C1116   1.454       .  S
C1112      C1113   1.432       .  A
C1112      C1128   1.444       .  S
C1113      C1114   1.449       .  A
C1114      C1117   1.452       .  S
C1115      C1118   1.413       .  A
C1115      C1122   1.408       .  A
C1116      N1133   1.157       .  T
C1117      N1135   1.158       .  T
C1118      C1119   1.411       .  A
C1118      C1123   1.451       .  S
C1119      C1120   1.413       .  A
C1119      C1125   1.451       .  S
C1120      C1121   1.419       .  A
C1121      C1122   1.411       .  A
C1121      C1124   1.451       .  S
C1122      C1126   1.451       .  S
C1123      N1130   1.157       .  T
C1124      N1131   1.158       .  T
C1125      N1129   1.157       .  T
C1126      N1132   1.157       .  T
C1127      N1136   1.157       .  T
C1128      N1134   1.158       .  T
C1137      C1138   1.399       .  A
C1137      C1142   1.384       .  A
C1137      C1155   1.430       .  S
C1138      C1143   1.499       .  S
C1138      C1139   1.415       .  A
C1139      C1140   1.436       .  A
C1139      C1144   1.447       .  S
C1140      C1141   1.454       .  A
C1140      C1156   1.446       .  S
C1141      C1142   1.399       .  A
C1142      C1145   1.443       .  S
C1143      C1146   1.397       .  A
C1143      C1150   1.395       .  A
C1144      N1161   1.157       .  T
C1145      N1163   1.157       .  T
C1146      C1147   1.427       .  A
C1146      C1151   1.447       .  S
C1147      C1148   1.438       .  A
C1147      C1153   1.448       .  S
C1148      C1149   1.446       .  A
C1149      C1150   1.417       .  A
C1149      C1152   1.445       .  S
C1150      C1154   1.457       .  S
C1151      N1158   1.157       .  T
C1152      N1159   1.159       .  T
C1153      N1157   1.158       .  T
C1154      N1160   1.158       .  T
C1155      N1164   1.150       .  T
C1156      N1162   1.157       .  T
C1165      C1166   1.423       .  A
C1165      C1170   1.414       .  A
C1165      C1183   1.451       .  S
C1166      C1171   1.529       .  S
C1166      C1167   1.416       .  A
C1167      C1168   1.429       .  A
C1167      C1172   1.450       .  S
C1168      C1169   1.430       .  A
C1168      C1184   1.450       .  S
C1169      C1170   1.428       .  A
C1170      C1173   1.449       .  S
C1171      C1174   1.414       .  A
C1171      C1178   1.414       .  A
C1172      N1189   1.157       .  T
C1173      N1191   1.158       .  T
C1174      C1175   1.423       .  A
C1174      C1179   1.448       .  S
C1175      C1176   1.431       .  A
C1175      C1181   1.448       .  S
C1176      C1177   1.430       .  A
C1177      C1178   1.418       .  A
C1177      C1180   1.447       .  S
C1178      C1182   1.451       .  S
C1179      N1186   1.157       .  T
C1180      N1187   1.157       .  T
C1181      N1185   1.157       .  T
C1182      N1188   1.158       .  T
C1183      N1192   1.157       .  T
C1184      N1190   1.158       .  T
C1193      C1194   1.404       .  A
C1193      C1198   1.421       .  A
C1193      C1211   1.448       .  S
C1194      C1199   1.529       .  S
C1194      C1195   1.406       .  A
C1195      C1196   1.432       .  A
C1195      C1200   1.454       .  S
C1196      C1197   1.459       .  A
C1196      C1212   1.453       .  S
C1197      C1198   1.433       .  A
C1198      C1201   1.440       .  S
C1199      C1202   1.409       .  A
C1199      C1206   1.401       .  A
C1200      N1217   1.157       .  T
C1201      N1219   1.156       .  T
C1202      C1203   1.437       .  A
C1202      C1207   1.448       .  S
C1203      C1204   1.429       .  A
C1203      C1209   1.443       .  S
C1204      C1205   1.441       .  A
C1205      C1206   1.427       .  A
C1205      C1208   1.449       .  S
C1206      C1210   1.453       .  S
C1207      N1214   1.157       .  T
C1208      N1215   1.158       .  T
C1209      N1213   1.157       .  T
C1210      N1216   1.157       .  T
C1211      N1220   1.154       .  T
C1212      N1218   1.158       .  T
C1221      C1222   1.403       .  A
C1221      C1226   1.418       .  A
C1221      C1239   1.452       .  S
C1222      C1227   1.511       .  S
C1222      C1223   1.403       .  A
C1223      C1224   1.421       .  A
C1223      C1228   1.455       .  S
C1224      C1225   1.445       .  A
C1224      C1240   1.448       .  S
C1225      C1226   1.447       .  A
C1226      C1229   1.459       .  S
C1227      C1230   1.415       .  A
C1227      C1234   1.413       .  A
C1228      N1245   1.157       .  T
C1229      N1247   1.158       .  T
C1230      C1231   1.417       .  A
C1230      C1235   1.450       .  S
C1231      C1232   1.413       .  A
C1231      C1237   1.450       .  S
C1232      C1233   1.412       .  A
C1233      C1234   1.414       .  A
C1233      C1236   1.451       .  S
C1234      C1238   1.450       .  S
C1235      N1242   1.157       .  T
C1236      N1243   1.157   1_655  T
C1237      N1241   1.157       .  T
C1238      N1244   1.157       .  T
C1239      N1248   1.157       .  T
C1240      N1246   1.158       .  T
C1249      C1250   1.404       .  A
C1249      C1254   1.418       .  A
C1249      C1267   1.451       .  S
C1250      C1255   1.511       .  S
C1250      C1251   1.402       .  A
C1251      C1252   1.421       .  A
C1251      C1256   1.450       .  S
C1252      C1253   1.438       .  A
C1252      C1268   1.440       .  S
C1253      C1254   1.442       .  A
C1254      C1257   1.449       .  S
C1255      C1258   1.390       .  A
C1255      C1262   1.404       .  A
C1256      N1273   1.157       .  T
C1257      N1275   1.157       .  T
C1258      C1259   1.409       .  A
C1258      C1263   1.456       .  S
C1259      C1260   1.448       .  A
C1259      C1265   1.428       .  S
C1260      C1261   1.447       .  A
C1261      C1262   1.429       .  A
C1261      C1264   1.445       .  S
C1262      C1266   1.449       .  S
C1263      N1270   1.156       .  T
C1264      N1271   1.157       .  T
C1265      N1269   1.151       .  T
C1266      N1272   1.157       .  T
C1267      N1276   1.157       .  T
C1268      N1274   1.158       .  T
C1277      C1278   1.422       .  A
C1277      C1282   1.431       .  A
C1277      C1295   1.446       .  S
C1278      C1283   1.527       .  S
C1278      C1279   1.404       .  A
C1279      C1280   1.411       .  A
C1279      C1284   1.446       .  S
C1280      C1281   1.447       .  A
C1280      C1296   1.455       .  S
C1281      C1282   1.415       .  A
C1282      C1285   1.448       .  S
C1283      C1286   1.401       .  A
C1283      C1290   1.409       .  A
C1284      N1301   1.155       .  T
C1285      N1303   1.157       .  T
C1286      C1287   1.425       .  A
C1286      C1291   1.451       .  S
C1287      C1288   1.441       .  A
C1287      C1293   1.442       .  S
C1288      C1289   1.447       .  A
C1289      C1290   1.429       .  A
C1289      C1292   1.454       .  S
C1290      C1294   1.450       .  S
C1291      N1298   1.155       .  T
C1292      N1299   1.158       .  T
C1293      N1297   1.158       .  T
C1294      N1300   1.157       .  T
C1295      N1304   1.157       .  T
C1296      N1302   1.157       .  T
C1305      C1306   1.414       .  A
C1305      C1310   1.440       .  A
C1305      C1323   1.449       .  S
C1306      C1311   1.523       .  S
C1306      C1307   1.398       .  A
C1307      C1308   1.397       .  A
C1307      C1312   1.440       .  S
C1308      C1309   1.440       .  A
C1308      C1324   1.455       .  S
C1309      C1310   1.444       .  A
C1310      C1313   1.444       .  S
C1311      C1314   1.410       .  A
C1311      C1318   1.413       .  A
C1312      N1329   1.150       .  T
C1313      N1331   1.158       .  T
C1314      C1315   1.422       .  A
C1314      C1319   1.451       .  S
C1315      C1316   1.440       .  A
C1315      C1321   1.446       .  S
C1316      C1317   1.417       .  A
C1317      C1318   1.419       .  A
C1317      C1320   1.446       .  S
C1318      C1322   1.444       .  S
C1319      N1326   1.157       .  T
C1320      N1327   1.158       .  T
C1321      N1325   1.158       .  T
C1322      N1328   1.157       .  T
C1323      N1332   1.157       .  T
C1324      N1330   1.155       .  T
C1333      C1334   1.397       .  A
C1333      C1338   1.416       .  A
C1333      C1351   1.454       .  S
C1334      C1339   1.500       .  S
C1334      C1335   1.396       .  A
C1335      C1336   1.416       .  A
C1335      C1340   1.458       .  S
C1336      C1337   1.446       .  A
C1336      C1352   1.441       .  S
C1337      C1338   1.453       .  A
C1338      C1341   1.453       .  S
C1339      C1342   1.406       .  A
C1339      C1346   1.410       .  A
C1340      N1357   1.157       .  T
C1341      N1359   1.158       .  T
C1342      C1343   1.415       .  A
C1342      C1347   1.451       .  S
C1343      C1344   1.425       .  A
C1343      C1349   1.450       .  S
C1344      C1345   1.422       .  A
C1345      C1346   1.411       .  A
C1345      C1348   1.451       .  S
C1346      C1350   1.453       .  S
C1347      N1354   1.157       .  T
C1348      N1355   1.158       .  T
C1349      N1353   1.157       .  T
C1350      N1356   1.157       .  T
C1351      N1360   1.157       .  T
C1352      N1358   1.158       .  T
C1361      C1362   1.399       .  A
C1361      C1366   1.419       .  A
C1361      C1379   1.453       .  S
C1362      C1367   1.509       .  S
C1362      C1363   1.399       .  A
C1363      C1364   1.421       .  A
C1363      C1368   1.457       .  S
C1364      C1365   1.454       .  A
C1364      C1380   1.450       .  S
C1365      C1366   1.451       .  A
C1366      C1369   1.455       .  S
C1367      C1370   1.409       .  A
C1367      C1374   1.412       .  A
C1368      N1385   1.157       .  T
C1369      N1387   1.157       .  T
C1370      C1371   1.416       .  A
C1370      C1375   1.451       .  S
C1371      C1372   1.421       .  A
C1371      C1377   1.450       .  S
C1372      C1373   1.418       .  A
C1373      C1374   1.416       .  A
C1373      C1376   1.449       .  S
C1374      C1378   1.450       .  S
C1375      N1382   1.157       .  T
C1376      N1383   1.157       .  T
C1377      N1381   1.157       .  T
C1378      N1384   1.157       .  T
C1379      N1388   1.157       .  T
C1380      N1386   1.158       .  T
C1389      C1390   1.417       .  A
C1389      C1394   1.417       .  A
C1389      C1407   1.450       .  S
C1390      C1395   1.514       .  S
C1390      C1391   1.416       .  A
C1391      C1392   1.412       .  A
C1391      C1396   1.449       .  S
C1392      C1393   1.413       .  A
C1392      C1408   1.453       .  S
C1393      C1394   1.413       .  A
C1394      C1397   1.450       .  S
C1395      C1398   1.401       .  A
C1395      C1402   1.401       .  A
C1396      N1413   1.157       .  T
C1397      N1415   1.157       .  T
C1398      C1399   1.421       .  A
C1398      C1403   1.457       .  S
C1399      C1400   1.445       .  A
C1399      C1405   1.444       .  S
C1400      C1401   1.455       .  A
C1401      C1402   1.425       .  A
C1401      C1404   1.448       .  S
C1402      C1406   1.456       .  S
C1403      N1410   1.157       .  T
C1404      N1411   1.158       .  T
C1405      N1409   1.156       .  T
C1406      N1412   1.157       .  T
C1407      N1416   1.157       .  T
C1408      N1414   1.157       .  T
C1417      C1418   1.400       .  A
C1417      C1422   1.417       .  A
C1417      C1435   1.454       .  S
C1418      C1423   1.510       .  S
C1418      C1419   1.403       .  A
C1419      C1420   1.423       .  A
C1419      C1424   1.453       .  S
C1420      C1421   1.446       .  A
C1420      C1436   1.449       .  S
C1421      C1422   1.437       .  A
C1422      C1425   1.441       .  S
C1423      C1426   1.414       .  A
C1423      C1430   1.413       .  A
C1424      N1441   1.157       .  T
C1425      N1443   1.156       .  T
C1426      C1427   1.418       .  A
C1426      C1431   1.448       .  S
C1427      C1428   1.412       .  A
C1427      C1433   1.449       .  S
C1428      C1429   1.414       .  A
C1429      C1430   1.413       .  A
C1429      C1432   1.451       .  S
C1430      C1434   1.450       .  S
C1431      N1438   1.157       .  T
C1432      N1439   1.157   1_565  T
C1433      N1437   1.157       .  T
C1434      N1440   1.157       .  T
C1435      N1444   1.157       .  T
C1436      N1442   1.158       .  T
C1445      C1446   1.411       .  A
C1445      C1450   1.410       .  A
C1445      C1463   1.450       .  S
C1446      C1451   1.503       .  S
C1446      C1447   1.412       .  A
C1447      C1448   1.415       .  A
C1447      C1452   1.449       .  S
C1448      C1449   1.413       .  A
C1448      C1464   1.450       .  S
C1449      C1450   1.416       .  A
C1450      C1453   1.452       .  S
C1451      C1454   1.401       .  A
C1451      C1458   1.401       .  A
C1452      N1469   1.157       .  T
C1453      N1471   1.157       .  T
C1454      C1455   1.417       .  A
C1454      C1459   1.456       .  S
C1455      C1456   1.447       .  A
C1455      C1461   1.450       .  S
C1456      C1457   1.448       .  A
C1457      C1458   1.417       .  A
C1457      C1460   1.456       .  S
C1458      C1462   1.452       .  S
C1459      N1466   1.157       .  T
C1460      N1467   1.158       .  T
C1461      N1465   1.158       .  T
C1462      N1468   1.157       .  T
C1463      N1472   1.157       .  T
C1464      N1470   1.157       .  T
C1473      C1474   1.397       .  A
C1473      C1478   1.418       .  A
C1473      C1491   1.457       .  S
C1474      C1479   1.506       .  S
C1474      C1475   1.394       .  A
C1475      C1476   1.421       .  A
C1475      C1480   1.457       .  S
C1476      C1477   1.449       .  A
C1476      C1492   1.442       .  S
C1477      C1478   1.458       .  A
C1478      C1481   1.452       .  S
C1479      C1482   1.406       .  A
C1479      C1486   1.412       .  A
C1480      N1497   1.157       .  T
C1481      N1499   1.158       .  T
C1482      C1483   1.411       .  A
C1482      C1487   1.452       .  S
C1483      C1484   1.424       .  A
C1483      C1489   1.451       .  S
C1484      C1485   1.421       .  A
C1485      C1486   1.416       .  A
C1485      C1488   1.451       .  S
C1486      C1490   1.452       .  S
C1487      N1494   1.157       .  T
C1488      N1495   1.158       .  T
C1489      N1493   1.157       .  T
C1490      N1496   1.157       .  T
C1491      N1500   1.157       .  T
C1492      N1498   1.158       .  T
C1501      C1502   1.391       .  A
C1501      C1506   1.398       .  A
C1501      C1519   1.445       .  S
C1502      C1507   1.511       .  S
C1502      C1503   1.412       .  A
C1503      C1504   1.435       .  A
C1503      C1508   1.448       .  S
C1504      C1505   1.440       .  A
C1504      C1520   1.445       .  S
C1505      C1506   1.445       .  A
C1506      C1509   1.452       .  S
C1507      C1510   1.400       .  A
C1507      C1514   1.399       .  A
C1508      N1525   1.157       .  T
C1509      N1527   1.154       .  T
C1510      C1511   1.420       .  A
C1510      C1515   1.452       .  S
C1511      C1512   1.449       .  A
C1511      C1517   1.449       .  S
C1512      C1513   1.447       .  A
C1513      C1514   1.425       .  A
C1513      C1516   1.437       .  S
C1514      C1518   1.455       .  S
C1515      N1522   1.157       .  T
C1516      N1523   1.157       .  T
C1517      N1521   1.157       .  T
C1518      N1524   1.158       .  T
C1519      N1528   1.153       .  T
C1520      N1526   1.158       .  T
C1529      C1530   1.396       .  A
C1529      C1534   1.418       .  A
C1529      C1547   1.456       .  S
C1530      C1535   1.502       .  S
C1530      C1531   1.398       .  A
C1531      C1532   1.420       .  A
C1531      C1536   1.456       .  S
C1532      C1533   1.455       .  A
C1532      C1548   1.452       .  S
C1533      C1534   1.446       .  A
C1534      C1537   1.444       .  S
C1535      C1538   1.412       .  A
C1535      C1542   1.411       .  A
C1536      N1553   1.157       .  T
C1537      N1555   1.157       .  T
C1538      C1539   1.414       .  A
C1538      C1543   1.449       .  S
C1539      C1540   1.412       .  A
C1539      C1545   1.449       .  S
C1540      C1541   1.414       .  A
C1541      C1542   1.410       .  A
C1541      C1544   1.451       .  S
C1542      C1546   1.451       .  S
C1543      N1550   1.157       .  T
C1544      N1551   1.157       .  T
C1545      N1549   1.157       .  T
C1546      N1552   1.157       .  T
C1547      N1556   1.157       .  T
C1548      N1554   1.158       .  T
C1557      C1558   1.424       .  A
C1557      C1562   1.449       .  A
C1557      C1575   1.446       .  S
C1558      C1563   1.508       .  S
C1558      C1559   1.391       .  A
C1559      C1560   1.389       .  A
C1559      C1564   1.439       .  S
C1560      C1561   1.406       .  A
C1560      C1576   1.445       .  S
C1561      C1562   1.457       .  A
C1562      C1565   1.445       .  S
C1563      C1566   1.396       .  A
C1563      C1570   1.401       .  A
C1564      N1581   1.157       .  T
C1565      N1583   1.157       .  T
C1566      C1567   1.418       .  A
C1566      C1571   1.452       .  S
C1567      C1568   1.461       .  A
C1567      C1573   1.454       .  S
C1568      C1569   1.433       .  A
C1569      C1570   1.428       .  A
C1569      C1572   1.449       .  S
C1570      C1574   1.446       .  S
C1571      N1578   1.157       .  T
C1572      N1579   1.157       .  T
C1573      N1577   1.158       .  T
C1574      N1580   1.157       .  T
C1575      N1584   1.157       .  T
C1576      N1582   1.156       .  T
C1585      C1586   1.382       .  A
C1585      C1590   1.385       .  A
C1585      C1603   1.437       .  S
C1586      C1591   1.513       .  S
C1586      C1587   1.409       .  A
C1587      C1588   1.441       .  A
C1587      C1592   1.449       .  S
C1588      C1589   1.461       .  A
C1588      C1604   1.448       .  S
C1589      C1590   1.427       .  A
C1590      C1593   1.432       .  S
C1591      C1594   1.407       .  A
C1591      C1598   1.401       .  A
C1592      N1609   1.157       .  T
C1593      N1611   1.152       .  T
C1594      C1595   1.428       .  A
C1594      C1599   1.451       .  S
C1595      C1596   1.435       .  A
C1595      C1601   1.439       .  S
C1596      C1597   1.447       .  A
C1597      C1598   1.418       .  A
C1597      C1600   1.448       .  S
C1598      C1602   1.451       .  S
C1599      N1606   1.157       .  T
C1600      N1607   1.157       .  T
C1601      N1605   1.158       .  T
C1602      N1608   1.157       .  T
C1603      N1612   1.151       .  T
C1604      N1610   1.158       .  T
C1613      C1614   1.412       .  A
C1613      C1618   1.410       .  A
C1613      C1631   1.449       .  S
C1614      C1619   1.507       .  S
C1614      C1615   1.415       .  A
C1615      C1616   1.417       .  A
C1615      C1620   1.449       .  S
C1616      C1617   1.411       .  A
C1616      C1632   1.450       .  S
C1617      C1618   1.412       .  A
C1618      C1621   1.450       .  S
C1619      C1622   1.405       .  A
C1619      C1626   1.403       .  A
C1620      N1637   1.157       .  T
C1621      N1639   1.157       .  T
C1622      C1623   1.420       .  A
C1622      C1627   1.454       .  S
C1623      C1624   1.442       .  A
C1623      C1629   1.448       .  S
C1624      C1625   1.443       .  A
C1625      C1626   1.417       .  A
C1625      C1628   1.453       .  S
C1626      C1630   1.452       .  S
C1627      N1634   1.157       .  T
C1628      N1635   1.157       .  T
C1629      N1633   1.158       .  T
C1630      N1636   1.157       .  T
C1631      N1640   1.157       .  T
C1632      N1638   1.157   1_565  T
C1641      C1642   1.399       .  A
C1641      C1646   1.411       .  A
C1641      C1659   1.449       .  S
C1642      C1647   1.520       .  S
C1642      C1643   1.415       .  A
C1643      C1644   1.431       .  A
C1643      C1648   1.448       .  S
C1644      C1645   1.427       .  A
C1644      C1660   1.448       .  S
C1645      C1646   1.460       .  A
C1646      C1649   1.459       .  S
C1647      C1650   1.403       .  A
C1647      C1654   1.418       .  A
C1648      N1665   1.157       .  T
C1649      N1667   1.158       .  T
C1650      C1651   1.410       .  A
C1650      C1655   1.449       .  S
C1651      C1652   1.451       .  A
C1651      C1657   1.454       .  S
C1652      C1653   1.423       .  A
C1653      C1654   1.432       .  A
C1653      C1656   1.448       .  S
C1654      C1658   1.448       .  S
C1655      N1662   1.155       .  T
C1656      N1663   1.158       .  T
C1657      N1661   1.159       .  T
C1658      N1664   1.157       .  T
C1659      N1668   1.155       .  T
C1660      N1666   1.158       .  T
C1669      C1670   1.404       .  A
C1669      C1674   1.433       .  A
C1669      C1687   1.450       .  S
C1670      C1675   1.512       .  S
C1670      C1671   1.389       .  A
C1671      C1672   1.404       .  A
C1671      C1676   1.442       .  S
C1672      C1673   1.442       .  A
C1672      C1688   1.448       .  S
C1673      C1674   1.450       .  A
C1674      C1677   1.445       .  S
C1675      C1678   1.403       .  A
C1675      C1682   1.405       .  A
C1676      N1693   1.153       .  T
C1677      N1695   1.158       .  T
C1678      C1679   1.418       .  A
C1678      C1683   1.451       .  S
C1679      C1680   1.443       .  A
C1679      C1685   1.447       .  S
C1680      C1681   1.434       .  A
C1681      C1682   1.423       .  A
C1681      C1684   1.440       .  S
C1682      C1686   1.451       .  S
C1683      N1690   1.157       .  T
C1684      N1691   1.158       .  T
C1685      N1689   1.157       .  T
C1686      N1692   1.157       .  T
C1687      N1696   1.157       .  T
C1688      N1694   1.155       .  T
C1697      C1698   1.394       .  A
C1697      C1702   1.398       .  A
C1697      C1715   1.447       .  S
C1698      C1703   1.517       .  S
C1698      C1699   1.411       .  A
C1699      C1700   1.436       .  A
C1699      C1704   1.449       .  S
C1700      C1701   1.443       .  A
C1700      C1716   1.445       .  S
C1701      C1702   1.444       .  A
C1702      C1705   1.453       .  S
C1703      C1706   1.408       .  A
C1703      C1710   1.410       .  A
C1704      N1721   1.157       .  T
C1705      N1723   1.156       .  T
C1706      C1707   1.420       .  A
C1706      C1711   1.451       .  S
C1707      C1708   1.436       .  A
C1707      C1713   1.446       .  S
C1708      C1709   1.429       .  A
C1709      C1710   1.421       .  A
C1709      C1712   1.447       .  S
C1710      C1714   1.450       .  S
C1711      N1718   1.157       .  T
C1712      N1719   1.157       .  T
C1713      N1717   1.157       .  T
C1714      N1720   1.157       .  T
C1715      N1724   1.155       .  T
C1716      N1722   1.158       .  T
C1725      C1726   1.411       .  A
C1725      C1730   1.416       .  A
C1725      C1743   1.449       .  S
C1726      C1731   1.512       .  S
C1726      C1727   1.408       .  A
C1727      C1728   1.418       .  A
C1727      C1732   1.452       .  S
C1728      C1729   1.429       .  A
C1728      C1744   1.451       .  S
C1729      C1730   1.422       .  A
C1730      C1733   1.451       .  S
C1731      C1734   1.399       .  A
C1731      C1738   1.403       .  A
C1732      N1749   1.157       .  T
C1733      N1751   1.157       .  T
C1734      C1735   1.419       .  A
C1734      C1739   1.454       .  S
C1735      C1736   1.445       .  A
C1735      C1741   1.447       .  S
C1736      C1737   1.447       .  A
C1737      C1738   1.423       .  A
C1737      C1740   1.448       .  S
C1738      C1742   1.454       .  S
C1739      N1746   1.157       .  T
C1740      N1747   1.158       .  T
C1741      N1745   1.157       .  T
C1742      N1748   1.157       .  T
C1743      N1752   1.157       .  T
C1744      N1750   1.158   1_554  T
C1753      C1754   1.396       .  A
C1753      C1758   1.415       .  A
C1753      C1771   1.456       .  S
C1754      C1759   1.508       .  S
C1754      C1755   1.398       .  A
C1755      C1756   1.425       .  A
C1755      C1760   1.455       .  S
C1756      C1757   1.451       .  A
C1756      C1772   1.445       .  S
C1757      C1758   1.454       .  A
C1758      C1761   1.451       .  S
C1759      C1762   1.412       .  A
C1759      C1766   1.411       .  A
C1760      N1777   1.157       .  T
C1761      N1779   1.158       .  T
C1762      C1763   1.410       .  A
C1762      C1767   1.449       .  S
C1763      C1764   1.416       .  A
C1763      C1769   1.453       .  S
C1764      C1765   1.418       .  A
C1765      C1766   1.418       .  A
C1765      C1768   1.450       .  S
C1766      C1770   1.449       .  S
C1767      N1774   1.156       .  T
C1768      N1775   1.157       .  T
C1769      N1773   1.157       .  T
C1770      N1776   1.157       .  T
C1771      N1780   1.157       .  T
C1772      N1778   1.158       .  T
C1781      C1782   1.412       .  A
C1781      C1786   1.413       .  A
C1781      C1799   1.449       .  S
C1782      C1787   1.498       .  S
C1782      C1783   1.411       .  A
C1783      C1784   1.407       .  A
C1783      C1788   1.452       .  S
C1784      C1785   1.411       .  A
C1784      C1800   1.451       .  S
C1785      C1786   1.411       .  A
C1786      C1789   1.450       .  S
C1787      C1790   1.394       .  A
C1787      C1794   1.395       .  A
C1788      N1805   1.157       .  T
C1789      N1807   1.157       .  T
C1790      C1791   1.416       .  A
C1790      C1795   1.457       .  S
C1791      C1792   1.460       .  A
C1791      C1797   1.454       .  S
C1792      C1793   1.446       .  A
C1793      C1794   1.419       .  A
C1793      C1796   1.442       .  S
C1794      C1798   1.458       .  S
C1795      N1802   1.157       .  T
C1796      N1803   1.157       .  T
C1797      N1801   1.158       .  T
C1798      N1804   1.157       .  T
C1799      N1808   1.157       .  T
C1800      N1806   1.157       .  T
C1809      C1810   1.415       .  A
C1809      C1814   1.414       .  A
C1809      C1827   1.450       .  S
C1810      C1815   1.508       .  S
C1810      C1811   1.415       .  A
C1811      C1812   1.414       .  A
C1811      C1816   1.450       .  S
C1812      C1813   1.412       .  A
C1812      C1828   1.452       .  S
C1813      C1814   1.410       .  A
C1814      C1817   1.450       .  S
C1815      C1818   1.404       .  A
C1815      C1822   1.405       .  A
C1816      N1833   1.157       .  T
C1817      N1835   1.157       .  T
C1818      C1819   1.417       .  A
C1818      C1823   1.456       .  S
C1819      C1820   1.444       .  A
C1819      C1825   1.450       .  S
C1820      C1821   1.442       .  A
C1821      C1822   1.418       .  A
C1821      C1824   1.454       .  S
C1822      C1826   1.451       .  S
C1823      N1830   1.157       .  T
C1824      N1831   1.158       .  T
C1825      N1829   1.158       .  T
C1826      N1832   1.157       .  T
C1827      N1836   1.157       .  T
C1828      N1834   1.158       .  T
C1837      C1838   1.400       .  A
C1837      C1842   1.418       .  A
C1837      C1855   1.455       .  S
C1838      C1843   1.505       .  S
C1838      C1839   1.398       .  A
C1839      C1840   1.420       .  A
C1839      C1844   1.456       .  S
C1840      C1841   1.453       .  A
C1840      C1856   1.451       .  S
C1841      C1842   1.440       .  A
C1842      C1845   1.442       .  S
C1843      C1846   1.410       .  A
C1843      C1850   1.412       .  A
C1844      N1861   1.157       .  T
C1845      N1863   1.158       .  T
C1846      C1847   1.414       .  A
C1846      C1851   1.450       .  S
C1847      C1848   1.420       .  A
C1847      C1853   1.451       .  S
C1848      C1849   1.415       .  A
C1849      C1850   1.413       .  A
C1849      C1852   1.451       .  S
C1850      C1854   1.451       .  S
C1851      N1858   1.157       .  T
C1852      N1859   1.157       .  T
C1853      N1857   1.157       .  T
C1854      N1860   1.157       .  T
C1855      N1864   1.157       .  T
C1856      N1862   1.158       .  T
C1865      C1866   1.407       .  A
C1865      C1870   1.413       .  A
C1865      C1883   1.453       .  S
C1866      C1871   1.500       .  S
C1866      C1867   1.409       .  A
C1867      C1868   1.411       .  A
C1867      C1872   1.451       .  S
C1868      C1869   1.419       .  A
C1868      C1884   1.451       .  S
C1869      C1870   1.426       .  A
C1870      C1873   1.451       .  S
C1871      C1874   1.395       .  A
C1871      C1878   1.393       .  A
C1872      N1889   1.157       .  T
C1873      N1891   1.158       .  T
C1874      C1875   1.419       .  A
C1874      C1879   1.457       .  S
C1875      C1876   1.459       .  A
C1875      C1881   1.452       .  S
C1876      C1877   1.445       .  A
C1877      C1878   1.418       .  A
C1877      C1880   1.440       .  S
C1878      C1882   1.458       .  S
C1879      N1886   1.157       .  T
C1880      N1887   1.157       .  T
C1881      N1885   1.158       .  T
C1882      N1888   1.157       .  T
C1883      N1892   1.158       .  T
C1884      N1890   1.157       .  T
C1893      C1894   1.397       .  A
C1893      C1898   1.420       .  A
C1893      C1911   1.456       .  S
C1894      C1899   1.502       .  S
C1894      C1895   1.395       .  A
C1895      C1896   1.417       .  A
C1895      C1900   1.459       .  S
C1896      C1897   1.460       .  A
C1896      C1912   1.450       .  S
C1897      C1898   1.449       .  A
C1898      C1901   1.446       .  S
C1899      C1902   1.411       .  A
C1899      C1906   1.412       .  A
C1900      N1917   1.157       .  T
C1901      N1919   1.157       .  T
C1902      C1903   1.412       .  A
C1902      C1907   1.450       .  S
C1903      C1904   1.416       .  A
C1903      C1909   1.452       .  S
C1904      C1905   1.415       .  A
C1905      C1906   1.410       .  A
C1905      C1908   1.451       .  S
C1906      C1910   1.451       .  S
C1907      N1914   1.157       .  T
C1908      N1915   1.157       .  T
C1909      N1913   1.158       .  T
C1910      N1916   1.157       .  T
C1911      N1920   1.157       .  T
C1912      N1918   1.159       .  T
C1921      C1922   1.400       .  A
C1921      C1926   1.408       .  A
C1921      C1939   1.450       .  S
C1922      C1927   1.505       .  S
C1922      C1923   1.408       .  A
C1923      C1924   1.423       .  A
C1923      C1928   1.450       .  S
C1924      C1925   1.438       .  A
C1924      C1940   1.449       .  S
C1925      C1926   1.437       .  A
C1926      C1929   1.439       .  S
C1927      C1930   1.410       .  A
C1927      C1934   1.400       .  A
C1928      N1945   1.157       .  T
C1929      N1947   1.152       .  T
C1930      C1931   1.419       .  A
C1930      C1935   1.447       .  S
C1931      C1932   1.419       .  A
C1931      C1937   1.447       .  S
C1932      C1933   1.457       .  A
C1933      C1934   1.412       .  A
C1933      C1936   1.456       .  S
C1934      C1938   1.453       .  S
C1935      N1942   1.157       .  T
C1936      N1943   1.158       .  T
C1937      N1941   1.157       .  T
C1938      N1944   1.157       .  T
C1939      N1948   1.156       .  T
C1940      N1946   1.158       .  T
C1949      C1950   1.411       .  A
C1949      C1954   1.411       .  A
C1949      C1967   1.452       .  S
C1950      C1955   1.501       .  S
C1950      C1951   1.412       .  A
C1951      C1952   1.410       .  A
C1951      C1956   1.451       .  S
C1952      C1953   1.418       .  A
C1952      C1968   1.452       .  S
C1953      C1954   1.420       .  A
C1954      C1957   1.451       .  S
C1955      C1958   1.401       .  A
C1955      C1962   1.398       .  A
C1956      N1973   1.157       .  T
C1957      N1975   1.158       .  T
C1958      C1959   1.417       .  A
C1958      C1963   1.456       .  S
C1959      C1960   1.448       .  A
C1959      C1965   1.448       .  S
C1960      C1961   1.447       .  A
C1961      C1962   1.413       .  A
C1961      C1964   1.449       .  S
C1962      C1966   1.456       .  S
C1963      N1970   1.157       .  T
C1964      N1971   1.157       .  T
C1965      N1969   1.158       .  T
C1966      N1972   1.157       .  T
C1967      N1976   1.157       .  T
C1968      N1974   1.158       .  T
C1977      C1978   1.398       .  A
C1977      C1982   1.414       .  A
C1977      C1995   1.455       .  S
C1978      C1983   1.508       .  S
C1978      C1979   1.404       .  A
C1979      C1980   1.423       .  A
C1979      C1984   1.447       .  S
C1980      C1981   1.436       .  A
C1980      C1996   1.453       .  S
C1981      C1982   1.445       .  A
C1982      C1985   1.441       .  S
C1983      C1986   1.404       .  A
C1983      C1990   1.408       .  A
C1984      N2001   1.157       .  T
C1985      N2003   1.158       .  T
C1986      C1987   1.400       .  A
C1986      C1991   1.452       .  S
C1987      C1988   1.446       .  A
C1987      C1993   1.459       .  S
C1988      C1989   1.442       .  A
C1989      C1990   1.429       .  A
C1989      C1992   1.446       .  S
C1990      C1994   1.450       .  S
C1991      N1998   1.156       .  T
C1992      N1999   1.158       .  T
C1993      N1997   1.157       .  T
C1994      N2000   1.157       .  T
C1995      N2004   1.157       .  T
C1996      N2002   1.157       .  T
C2005      C2006   1.412       .  A
C2005      C2010   1.426       .  A
C2005      C2023   1.445       .  S
C2006      C2011   1.534       .  S
C2006      C2007   1.409       .  A
C2007      C2008   1.426       .  A
C2007      C2012   1.453       .  S
C2008      C2009   1.436       .  A
C2008      C2024   1.441       .  S
C2009      C2010   1.443       .  A
C2010      C2013   1.456       .  S
C2011      C2014   1.410       .  A
C2011      C2018   1.422       .  A
C2012      N2029   1.157       .  T
C2013      N2031   1.158       .  T
C2014      C2015   1.409       .  A
C2014      C2019   1.446       .  S
C2015      C2016   1.427       .  A
C2015      C2021   1.448       .  S
C2016      C2017   1.436       .  A
C2017      C2018   1.447       .  A
C2017      C2020   1.442       .  S
C2018      C2022   1.447       .  S
C2019      N2026   1.154       .  T
C2020      N2027   1.157       .  T
C2021      N2025   1.157       .  T
C2022      N2028   1.157       .  T
C2023      N2032   1.157       .  T
C2024      N2030   1.158       .  T
C2033      C2034   1.400       .  A
C2033      C2038   1.417       .  A
C2033      C2051   1.454       .  S
C2034      C2039   1.500       .  S
C2034      C2035   1.400       .  A
C2035      C2036   1.412       .  A
C2035      C2040   1.455       .  S
C2036      C2037   1.435       .  A
C2036      C2052   1.443       .  S
C2037      C2038   1.447       .  A
C2038      C2041   1.451       .  S
C2039      C2042   1.407       .  A
C2039      C2046   1.410       .  A
C2040      N2057   1.157       .  T
C2041      N2059   1.158       .  T
C2042      C2043   1.414       .  A
C2042      C2047   1.452       .  S
C2043      C2044   1.425       .  A
C2043      C2049   1.451       .  S
C2044      C2045   1.420       .  A
C2045      C2046   1.410       .  A
C2045      C2048   1.449       .  S
C2046      C2050   1.453       .  S
C2047      N2054   1.157       .  T
C2048      N2055   1.157       .  T
C2049      N2053   1.158       .  T
C2050      N2056   1.157       .  T
C2051      N2060   1.157       .  T
C2052      N2058   1.158       .  T
C2061      C2062   1.402       .  A
C2061      C2066   1.423       .  A
C2061      C2079   1.450       .  S
C2062      C2067   1.505       .  S
C2062      C2063   1.401       .  A
C2063      C2064   1.415       .  A
C2063      C2068   1.451       .  S
C2064      C2065   1.450       .  A
C2064      C2080   1.452       .  S
C2065      C2066   1.436       .  A
C2066      C2069   1.443       .  S
C2067      C2070   1.408       .  A
C2067      C2074   1.383       .  A
C2068      N2085   1.157       .  T
C2069      N2087   1.158       .  T
C2070      C2071   1.437       .  A
C2070      C2075   1.448       .  S
C2071      C2072   1.453       .  A
C2071      C2077   1.443       .  S
C2072      C2073   1.431       .  A
C2073      C2074   1.384       .  A
C2073      C2076   1.429       .  S
C2074      C2078   1.438       .  S
C2075      N2082   1.157       .  T
C2076      N2083   1.147       .  T
C2077      N2081   1.158       .  T
C2078      N2084   1.153       .  T
C2079      N2088   1.157       .  T
C2080      N2086   1.157       .  T
C2089      C2090   1.408       .  A
C2089      C2094   1.435       .  A
C2089      C2107   1.446       .  S
C2090      C2095   1.508       .  S
C2090      C2091   1.383       .  A
C2091      C2092   1.398       .  A
C2091      C2096   1.439       .  S
C2092      C2093   1.433       .  A
C2092      C2108   1.437       .  S
C2093      C2094   1.450       .  A
C2094      C2097   1.443       .  S
C2095      C2098   1.389       .  A
C2095      C2102   1.404       .  A
C2096      N2113   1.156       .  T
C2097      N2115   1.157       .  T
C2098      C2099   1.414       .  A
C2098      C2103   1.447       .  S
C2099      C2100   1.456       .  A
C2099      C2105   1.446       .  S
C2100      C2101   1.433       .  A
C2101      C2102   1.427       .  A
C2101      C2104   1.449       .  S
C2102      C2106   1.445       .  S
C2103      N2110   1.158       .  T
C2104      N2111   1.158       .  T
C2105      N2109   1.156       .  T
C2106      N2112   1.157       .  T
C2107      N2116   1.157       .  T
C2108      N2114   1.154       .  T
C2117      C2118   1.411       .  A
C2117      C2122   1.381       .  A
C2117      C2135   1.428       .  S
C2118      C2123   1.518       .  S
C2118      C2119   1.425       .  A
C2119      C2120   1.437       .  A
C2119      C2124   1.446       .  S
C2120      C2121   1.426       .  A
C2120      C2136   1.450       .  S
C2121      C2122   1.396       .  A
C2122      C2125   1.444       .  S
C2123      C2126   1.408       .  A
C2123      C2130   1.404       .  A
C2124      N2141   1.157       .  T
C2125      N2143   1.156       .  T
C2126      C2127   1.422       .  A
C2126      C2131   1.449       .  S
C2127      C2128   1.443       .  A
C2127      C2133   1.450       .  S
C2128      C2129   1.444       .  A
C2129      C2130   1.423       .  A
C2129      C2132   1.441       .  S
C2130      C2134   1.457       .  S
C2131      N2138   1.157       .  T
C2132      N2139   1.158       .  T
C2133      N2137   1.157       .  T
C2134      N2140   1.157       .  T
C2135      N2144   1.149       .  T
C2136      N2142   1.158       .  T
C2145      C2146   1.398       .  A
C2145      C2150   1.418       .  A
C2145      C2163   1.457       .  S
C2146      C2151   1.503       .  S
C2146      C2147   1.398       .  A
C2147      C2148   1.418       .  A
C2147      C2152   1.455       .  S
C2148      C2149   1.444       .  A
C2148      C2164   1.447       .  S
C2149      C2150   1.453       .  A
C2150      C2153   1.450       .  S
C2151      C2154   1.408       .  A
C2151      C2158   1.408       .  A
C2152      N2169   1.157       .  T
C2153      N2171   1.158       .  T
C2154      C2155   1.413       .  A
C2154      C2159   1.452       .  S
C2155      C2156   1.424       .  A
C2155      C2161   1.451       .  S
C2156      C2157   1.425       .  A
C2157      C2158   1.413       .  A
C2157      C2160   1.451       .  S
C2158      C2162   1.452       .  S
C2159      N2166   1.157       .  T
C2160      N2167   1.158       .  T
C2161      N2165   1.158       .  T
C2162      N2168   1.157       .  T
C2163      N2172   1.157       .  T
C2164      N2170   1.157       .  T
C2173      C2174   1.398       .  A
C2173      C2178   1.415       .  A
C2173      C2191   1.455       .  S
C2174      C2179   1.498       .  S
C2174      C2175   1.397       .  A
C2175      C2176   1.416       .  A
C2175      C2180   1.458       .  S
C2176      C2177   1.457       .  A
C2176      C2192   1.453       .  S
C2177      C2178   1.441       .  A
C2178      C2181   1.444       .  S
C2179      C2182   1.409       .  A
C2179      C2186   1.409       .  A
C2180      N2197   1.157       .  T
C2181      N2199   1.157       .  T
C2182      C2183   1.411       .  A
C2182      C2187   1.452       .  S
C2183      C2184   1.421       .  A
C2183      C2189   1.451       .  S
C2184      C2185   1.420       .  A
C2185      C2186   1.409       .  A
C2185      C2188   1.450       .  S
C2186      C2190   1.452       .  S
C2187      N2194   1.157       .  T
C2188      N2195   1.157       .  T
C2189      N2193   1.158       .  T
C2190      N2196   1.157       .  T
C2191      N2200   1.157       .  T
C2192      N2198   1.158       .  T
C2201      C2202   1.401       .  A
C2201      C2206   1.423       .  A
C2201      C2219   1.454       .  S
C2202      C2207   1.511       .  S
C2202      C2203   1.404       .  A
C2203      C2204   1.419       .  A
C2203      C2208   1.448       .  S
C2204      C2205   1.431       .  A
C2204      C2220   1.444       .  S
C2205      C2206   1.443       .  A
C2206      C2209   1.443       .  S
C2207      C2210   1.393       .  A
C2207      C2214   1.410       .  A
C2208      N2225   1.157       .  T
C2209      N2227   1.158       .  T
C2210      C2211   1.403       .  A
C2210      C2215   1.445       .  S
C2211      C2212   1.442       .  A
C2211      C2217   1.443       .  S
C2212      C2213   1.444       .  A
C2213      C2214   1.434       .  A
C2213      C2216   1.444       .  S
C2214      C2218   1.450       .  S
C2215      N2222   1.153       .  T
C2216      N2223   1.158       .  T
C2217      N2221   1.151       .  T
C2218      N2224   1.157       .  T
C2219      N2228   1.158       .  T
C2220      N2226   1.158       .  T
C2229      C2230   1.399       .  A
C2229      C2234   1.417       .  A
C2229      C2247   1.456       .  S
C2230      C2235   1.504       .  S
C2230      C2231   1.400       .  A
C2231      C2232   1.418       .  A
C2231      C2236   1.454       .  S
C2232      C2233   1.448       .  A
C2232      C2248   1.455       .  S
C2233      C2234   1.444       .  A
C2234      C2237   1.448       .  S
C2235      C2238   1.408       .  A
C2235      C2242   1.408       .  A
C2236      N2253   1.157       .  T
C2237      N2255   1.157       .  T
C2238      C2239   1.416       .  A
C2238      C2243   1.452       .  S
C2239      C2240   1.426       .  A
C2239      C2245   1.451       .  S
C2240      C2241   1.422       .  A
C2241      C2242   1.412       .  A
C2241      C2244   1.450       .  S
C2242      C2246   1.452       .  S
C2243      N2250   1.157       .  T
C2244      N2251   1.157       .  T
C2245      N2249   1.158       .  T
C2246      N2252   1.157       .  T
C2247      N2256   1.157       .  T
C2248      N2254   1.158       .  T
C2257      C2258   1.409       .  A
C2257      C2262   1.423       .  A
C2257      C2275   1.450       .  S
C2258      C2263   1.521       .  S
C2258      C2259   1.410       .  A
C2259      C2260   1.405       .  A
C2259      C2264   1.443       .  S
C2260      C2261   1.423       .  A
C2260      C2276   1.444       .  S
C2261      C2262   1.438       .  A
C2262      C2265   1.444       .  S
C2263      C2266   1.412       .  A
C2263      C2270   1.406       .  A
C2264      N2281   1.154       .  T
C2265      N2283   1.157       .  T
C2266      C2267   1.422       .  A
C2266      C2271   1.451       .  S
C2267      C2268   1.434       .  A
C2267      C2273   1.442       .  S
C2268      C2269   1.442       .  A
C2269      C2270   1.416       .  A
C2269      C2272   1.449       .  S
C2270      C2274   1.452       .  S
C2271      N2278   1.158       .  T
C2272      N2279   1.157       .  T
C2273      N2277   1.158       .  T
C2274      N2280   1.157       .  T
C2275      N2284   1.157       .  T
C2276      N2282   1.156       .  T
C2285      C2286   1.394       .  A
C2285      C2290   1.393       .  A
C2285      C2303   1.445       .  S
C2286      C2291   1.537       .  S
C2286      C2287   1.420       .  A
C2287      C2288   1.451       .  A
C2287      C2292   1.448       .  S
C2288      C2289   1.464       .  A
C2288      C2304   1.446       .  S
C2289      C2290   1.432       .  A
C2290      C2293   1.438       .  S
C2291      C2294   1.426       .  A
C2291      C2298   1.434       .  A
C2292      N2309   1.157       .  T
C2293      N2311   1.157       .  T
C2294      C2295   1.421       .  A
C2294      C2299   1.445       .  S
C2295      C2296   1.418       .  A
C2295      C2301   1.448       .  S
C2296      C2297   1.400       .  A
C2297      C2298   1.427       .  A
C2297      C2300   1.447       .  S
C2298      C2302   1.442       .  S
C2299      N2306   1.157       .  T
C2300      N2307   1.158       .  T
C2301      N2305   1.158       .  T
C2302      N2308   1.157       .  T
C2303      N2312   1.157       .  T
C2304      N2310   1.158       .  T
C2313      C2314   1.405       .  A
C2313      C2318   1.416       .  A
C2313      C2331   1.452       .  S
C2314      C2319   1.508       .  S
C2314      C2315   1.406       .  A
C2315      C2316   1.419       .  A
C2315      C2320   1.453       .  S
C2316      C2317   1.440       .  A
C2316      C2332   1.451       .  S
C2317      C2318   1.436       .  A
C2318      C2321   1.451       .  S
C2319      C2322   1.415       .  A
C2319      C2326   1.414       .  A
C2320      N2337   1.157       .  T
C2321      N2339   1.156       .  T
C2322      C2323   1.416       .  A
C2322      C2327   1.449       .  S
C2323      C2324   1.411       .  A
C2323      C2329   1.450       .  S
C2324      C2325   1.413       .  A
C2325      C2326   1.414       .  A
C2325      C2328   1.451       .  S
C2326      C2330   1.451       .  S
C2327      N2334   1.157       .  T
C2328      N2335   1.157       .  T
C2329      N2333   1.157       .  T
C2330      N2336   1.157       .  T
C2331      N2340   1.157       .  T
C2332      N2338   1.158       .  T
C2341      C2342   1.407       .  A
C2341      C2346   1.421       .  A
C2341      C2359   1.445       .  S
C2342      C2347   1.506       .  S
C2342      C2343   1.404       .  A
C2343      C2344   1.415       .  A
C2343      C2348   1.452       .  S
C2344      C2345   1.450       .  A
C2344      C2360   1.453       .  S
C2345      C2346   1.426       .  A
C2346      C2349   1.446       .  S
C2347      C2350   1.412       .  A
C2347      C2354   1.386       .  A
C2348      N2365   1.157       .  T
C2349      N2367   1.158       .  T
C2350      C2351   1.442       .  A
C2350      C2355   1.447       .  S
C2351      C2352   1.457       .  A
C2351      C2357   1.443       .  S
C2352      C2353   1.402       .  A
C2353      C2354   1.384       .  A
C2353      C2356   1.441       .  S
C2354      C2358   1.429       .  S
C2355      N2362   1.157       .  T
C2356      N2363   1.154       .  T
C2357      N2361   1.157       .  T
C2358      N2364   1.150       .  T
C2359      N2368   1.157       .  T
C2360      N2366   1.159       .  T
C2369      C2370   1.378       .  A
C2369      C2374   1.389       .  A
C2369      C2387   1.438       .  S
C2370      C2375   1.508       .  S
C2370      C2371   1.413       .  A
C2371      C2372   1.443       .  A
C2371      C2376   1.448       .  S
C2372      C2373   1.453       .  A
C2372      C2388   1.444       .  S
C2373      C2374   1.432       .  A
C2374      C2377   1.436       .  S
C2375      C2378   1.409       .  A
C2375      C2382   1.397       .  A
C2376      N2393   1.157       .  T
C2377      N2395   1.153       .  T
C2378      C2379   1.428       .  A
C2378      C2383   1.447       .  S
C2379      C2380   1.430       .  A
C2379      C2385   1.449       .  S
C2380      C2381   1.456       .  A
C2381      C2382   1.414       .  A
C2381      C2384   1.455       .  S
C2382      C2386   1.449       .  S
C2383      N2390   1.157       .  T
C2384      N2391   1.158       .  T
C2385      N2389   1.158       .  T
C2386      N2392   1.156       .  T
C2387      N2396   1.153       .  T
C2388      N2394   1.157       .  T
C2397      C2398   1.413       .  A
C2397      C2402   1.438       .  A
C2397      C2415   1.452       .  S
C2398      C2403   1.534       .  S
C2398      C2399   1.411       .  A
C2399      C2400   1.418       .  A
C2399      C2404   1.450       .  S
C2400      C2401   1.436       .  A
C2400      C2416   1.447       .  S
C2401      C2402   1.444       .  A
C2402      C2405   1.443       .  S
C2403      C2406   1.402       .  A
C2403      C2410   1.414       .  A
C2404      N2421   1.157       .  T
C2405      N2423   1.158       .  T
C2406      C2407   1.400       .  A
C2406      C2411   1.433       .  S
C2407      C2408   1.417       .  A
C2407      C2413   1.442       .  S
C2408      C2409   1.451       .  A
C2409      C2410   1.436       .  A
C2409      C2412   1.448       .  S
C2410      C2414   1.451       .  S
C2411      N2418   1.155       .  T
C2412      N2419   1.158       .  T
C2413      N2417   1.156       .  T
C2414      N2420   1.157       .  T
C2415      N2424   1.157       .  T
C2416      N2422   1.157       .  T
C2425      C2426   1.412       .  A
C2425      C2430   1.411       .  A
C2425      C2443   1.451       .  S
C2426      C2431   1.508       .  S
C2426      C2427   1.416       .  A
C2427      C2428   1.415       .  A
C2427      C2432   1.451       .  S
C2428      C2429   1.413       .  A
C2428      C2444   1.451       .  S
C2429      C2430   1.417       .  A
C2430      C2433   1.451       .  S
C2431      C2434   1.402       .  A
C2431      C2438   1.396       .  A
C2432      N2449   1.157       .  T
C2433      N2451   1.157       .  T
C2434      C2435   1.425       .  A
C2434      C2439   1.454       .  S
C2435      C2436   1.451       .  A
C2435      C2441   1.447       .  S
C2436      C2437   1.450       .  A
C2437      C2438   1.414       .  A
C2437      C2440   1.443       .  S
C2438      C2442   1.459       .  S
C2439      N2446   1.157       .  T
C2440      N2447   1.158       .  T
C2441      N2445   1.158       .  T
C2442      N2448   1.157       .  T
C2443      N2452   1.157       .  T
C2444      N2450   1.157       .  T
