geometry optimzed in LAMMPS
_audit_creation_date              2020-11-30 
_audit_creation_method            'lammps2cif' 
_symmetry_space_group_name_H-M    'P1' 
_symmetry_Int_Tables_number       1 
_symmetry_cell_setting            triclinic 
loop_ 
_symmetry_equiv_pos_as_xyz 
  x,y,z 
_cell_length_a                    43.4891502 
_cell_length_b                    43.98425014907638 
_cell_length_c                    43.76816368100782 
_cell_angle_alpha                 89.98155814832143 
_cell_angle_beta                  89.99010047878589 
_cell_angle_gamma                 90.01171291081924 
loop_ 
_atom_site_label 
_atom_site_type_symbol 
_atom_site_fract_x 
_atom_site_fract_y 
_atom_site_fract_z 
_atom_site_charge 
O1          O  0.99820527  0.04982847  0.08716884    -0.81200
O2          O  0.99958140  0.05045541  0.41378329    -0.82700
O3          O  0.04909214  0.08739437  0.00344782    -0.79800
O4          O  0.44729244  0.08461495  0.99772986    -0.78100
O5          O  0.41062450  0.04722106  0.99958390    -0.79900
O6          O  0.08671466  0.05095266  0.00305467    -0.80900
O7          O  0.99999169  0.08723149  0.45046066    -0.82200
O8          O  0.99630236  0.08661608  0.05059002    -0.82500
Eu9        Eu  0.99871897  0.06161995  0.00041842     2.39200
O10         O  0.46804926  0.03009084  0.46943921    -0.90000
O11         O  0.03008707  0.03115371  0.03158064    -0.93600
C12         C  0.99666667  0.07786945  0.07877842     1.01100
C13         C  0.00016243  0.07855682  0.42223370     1.00900
C14         C  0.07754054  0.07884888  0.00390797     1.00900
C15         C  0.41913009  0.07529261  0.99798605     0.98700
H16         H  0.04378752  0.04463502  0.45747758     0.28500
O17         O  0.03099790  0.03168398  0.46996603    -1.02400
H18         H  0.45401616  0.04255282  0.04372006     0.28500
O19         O  0.46733399  0.03025073  0.03109690    -1.04900
O20         O  0.00090326  0.45037046  0.41371718    -0.82100
O21         O  0.99819198  0.45070870  0.08772455    -0.81700
O22         O  0.08761702  0.00163808  0.45125411    -0.80100
O23         O  0.41248960  0.99872962  0.44957858    -0.83500
O24         O  0.41184858  0.99625774  0.04985400    -0.81300
O25         O  0.08636965  0.99960480  0.05199051    -0.80000
O26         O  0.05264609  0.41448537  0.99929119    -0.81500
O27         O  0.45297409  0.41080916  0.99912089    -0.83400
O28         O  0.08945976  0.45145305  0.99869361    -0.80100
O29         O  0.41466727  0.44656012  0.99927750    -0.82800
O30         O  0.05068659  0.99976912  0.41405757    -0.78600
O31         O  0.04851646  0.00059804  0.08841416    -0.78600
O32         O  0.44867009  0.99750254  0.08713208    -0.78200
O33         O  0.45024442  0.00024254  0.41326948    -0.81700
O34         O  0.00120582  0.41325374  0.45008360    -0.81200
O35         O  0.00083179  0.41369662  0.05119818    -0.79500
Eu36       Eu  0.00038779  0.00033168  0.43881884     2.39800
Eu37       Eu  0.99896026  0.99995166  0.06212077     2.39600
Eu38       Eu  0.06233920  0.00069082  0.00121636     2.38400
Eu39       Eu  0.43739330  0.99809813  0.99999520     2.39900
Eu40       Eu  0.00158114  0.43817130  0.00059127     2.39800
O41         O  0.46899588  0.46800978  0.03119256    -0.93900
O42         O  0.03225047  0.46985332  0.46956999    -0.92800
C43         C  0.00063043  0.42222388  0.42199347     1.01300
C44         C  0.99953494  0.42270827  0.07926182     1.00000
C45         C  0.07887837  0.00025649  0.42311124     0.99400
C46         C  0.42180812  0.99991635  0.42160795     1.01400
C47         C  0.42051346  0.99609843  0.07803949     1.00300
C48         C  0.07687503  0.99980311  0.07993629     0.99200
C49         C  0.08090229  0.42330184  0.99811364     0.99200
C50         C  0.42451349  0.41880232  0.99875227     1.01800
H51         H  0.04450399  0.45669329  0.04504203     0.29200
O52         O  0.03170231  0.46927193  0.03220509    -1.06100
H53         H  0.45765996  0.45549350  0.45615986     0.31300
O54         O  0.47004837  0.46827499  0.46919697    -1.08600
O55         O  0.99842565  0.20169152  0.16296121    -0.81200
O56         O  0.00072358  0.20156993  0.33748344    -0.82700
O57         O  0.04986867  0.16423653  0.25002013    -0.79800
O58         O  0.44847991  0.16515625  0.24836643    -0.78100
O59         O  0.41171746  0.20234292  0.25102893    -0.79900
O60         O  0.08753410  0.20057316  0.25020557    -0.80900
O61         O  0.99678928  0.16501855  0.30075215    -0.82200
O62         O  0.99994935  0.16475663  0.19943143    -0.82500
Eu63       Eu  0.99954420  0.18946921  0.24991998     2.39200
O64         O  0.46954568  0.22063765  0.28160878    -0.90000
O65         O  0.03071179  0.22008043  0.21839203    -0.93600
C66         C  0.99934211  0.17357905  0.17125543     1.01100
C67         C  0.99774547  0.17365294  0.32900924     1.00900
C68         C  0.07828724  0.17269655  0.25072892     1.00900
C69         C  0.42023198  0.17424771  0.24914496     0.98700
H70         H  0.04505652  0.20699704  0.29278245     0.28500
O71         O  0.03236285  0.21975596  0.28004396    -1.02400
H72         H  0.45532168  0.20852469  0.20695814     0.28500
O73         O  0.46841804  0.22098096  0.21962096    -1.04900
O74         O  0.00455378  0.30061195  0.33673032    -0.82100
O75         O  0.99761906  0.30158590  0.16339967    -0.81700
O76         O  0.08981989  0.25256000  0.29767209    -0.80100
O77         O  0.41493767  0.25140067  0.30233345    -0.83500
O78         O  0.41164393  0.25206336  0.20178280    -0.81300
O79         O  0.08698767  0.24803433  0.19726069    -0.80000
O80         O  0.05186876  0.33730292  0.24882778    -0.81500
O81         O  0.45155665  0.33895082  0.25171390    -0.83400
O82         O  0.08910794  0.30041987  0.24901505    -0.80100
O83         O  0.41391640  0.30267449  0.25213510    -0.82800
O84         O  0.05326825  0.25096232  0.33533177    -0.78600
O85         O  0.04886558  0.25059840  0.16121923    -0.78600
O86         O  0.44862373  0.25178085  0.16456816    -0.78200
O87         O  0.45316145  0.25143710  0.33822170    -0.81700
O88         O  0.00493341  0.33756433  0.30022019    -0.81200
O89         O  0.99744925  0.33807569  0.20051797    -0.79500
Eu90       Eu  0.00232067  0.25099606  0.31150814     2.39800
Eu91       Eu  0.99946683  0.25155312  0.18821687     2.39600
Eu92       Eu  0.06315859  0.25071295  0.24831930     2.38400
Eu93       Eu  0.43811921  0.25200932  0.25135422     2.39900
Eu94       Eu  0.00131827  0.31280695  0.25012355     2.39800
O95         O  0.46904233  0.28250865  0.21976204    -0.93900
O96         O  0.03297050  0.28161835  0.28003092    -0.92800
C97         C  0.00565474  0.32866325  0.32832133     1.01300
C98         C  0.99642743  0.32950283  0.17236836     1.00000
C99         C  0.08134303  0.25187740  0.32589840     0.99400
C100        C  0.42469455  0.25153521  0.33017643     1.01400
C101        C  0.42043117  0.25149980  0.17360930     1.00300
C102        C  0.07729473  0.24872562  0.16936704     0.99200
C103        C  0.08010840  0.32838220  0.24897078     0.99200
C104        C  0.42312706  0.33062711  0.25223933     1.01800
H105        H  0.04449310  0.29494966  0.20483727     0.29200
O106        O  0.03195442  0.28236048  0.21794555    -1.06100
H107        H  0.45817491  0.29532096  0.29508970     0.31300
O108        O  0.47035546  0.28248194  0.28188661    -1.08600
O109        O  0.33599221  0.50036676  0.19889940    -0.81200
O110        O  0.16174738  0.50230451  0.20059082    -0.82700
O111        O  0.24855387  0.44919923  0.16368245    -0.79800
O112        O  0.24931622  0.04920282  0.16231695    -0.78100
O113        O  0.25085719  0.08637537  0.19882148    -0.79900
O114        O  0.24910784  0.41262163  0.20071537    -0.80900
O115        O  0.19854070  0.49950198  0.16324317    -0.82200
O116        O  0.29834798  0.49856889  0.16241268    -0.82500
Eu117      Eu  0.24872035  0.49958681  0.18829133     2.39200
O118        O  0.21803173  0.03130174  0.21894460    -0.90000
O119        O  0.28026518  0.46935453  0.21938962    -0.93600
C120        C  0.32668130  0.49951912  0.17089434     1.01100
C121        C  0.17045000  0.50122276  0.17242717     1.00900
C122        C  0.24914718  0.42116493  0.17244626     1.00900
C123        C  0.25065045  0.07731915  0.17074174     0.98700
H124        H  0.20444534  0.45652074  0.20723485     0.28500
O125        O  0.21748343  0.46922721  0.21972019    -1.02400
H126        H  0.29333917  0.04354310  0.20544786     0.28500
O127        O  0.28053382  0.03099017  0.21834008    -1.04900
O128        O  0.16264230  0.50192174  0.30140914    -0.82100
O129        O  0.33697928  0.49891954  0.29993122    -0.81700
O130        O  0.19815764  0.41489716  0.25274083    -0.80100
O131        O  0.19981922  0.08736500  0.24929316    -0.83500
O132        O  0.29962302  0.08759870  0.25096795    -0.81300
O133        O  0.29998517  0.41417857  0.24917993    -0.80000
O134        O  0.24908030  0.45087086  0.33780694    -0.81500
O135        O  0.25054471  0.05089241  0.33679616    -0.83400
O136        O  0.24971446  0.41384366  0.30114344    -0.80100
O137        O  0.24990539  0.08726742  0.29937952    -0.82800
O138        O  0.16092661  0.45179538  0.25121396    -0.78600
O139        O  0.33709405  0.45104752  0.24811809    -0.78600
O140        O  0.33720841  0.05122115  0.25035210    -0.78200
O141        O  0.16218129  0.05111802  0.24983801    -0.81700
O142        O  0.20027041  0.50093833  0.33793634    -0.81200
O143        O  0.29994676  0.49959534  0.33704587    -0.79500
Eu144      Eu  0.18708092  0.50107102  0.25070161     2.39800
Eu145      Eu  0.31184960  0.50073620  0.24965552     2.39600
Eu146      Eu  0.24917046  0.43865615  0.25064703     2.38400
Eu147      Eu  0.24979600  0.06197203  0.24950190     2.39900
Eu148      Eu  0.24988985  0.50066549  0.31198879     2.39800
O149        O  0.28108639  0.03160708  0.28090642    -0.93900
O150        O  0.21815271  0.46984830  0.28158997    -0.92800
C151        C  0.17194827  0.50184847  0.32943843     1.01300
C152        C  0.32813839  0.49852924  0.32810866     1.00000
C153        C  0.16992007  0.42388735  0.25246703     0.99400
C154        C  0.17142842  0.07899730  0.24906789     1.01400
C155        C  0.32798942  0.07919809  0.25118358     1.00300
C156        C  0.32827633  0.42303307  0.24803277     0.99200
C157        C  0.24918491  0.42276247  0.32927282     0.99200
C158        C  0.25001887  0.07879440  0.32759453     1.01800
H159        H  0.29366453  0.45688540  0.29356886     0.29200
O160        O  0.28084524  0.46968177  0.28094232    -1.06100
H161        H  0.20604612  0.04471038  0.29401372     0.31300
O162        O  0.21865982  0.03183092  0.28129317    -1.08600
O163        O  0.19906686  0.16350857  0.49839889    -0.81200
O164        O  0.20329724  0.33733015  0.49979393    -0.82700
O165        O  0.16179717  0.25082029  0.04752178    -0.79800
O166        O  0.16454630  0.25218079  0.44738006    -0.78100
O167        O  0.20242496  0.25436779  0.41103634    -0.79900
O168        O  0.19842955  0.24806471  0.08506824    -0.80900
O169        O  0.16515094  0.30151286  0.49894290    -0.82200
O170        O  0.16228581  0.20067055  0.49848127    -0.82500
Eu171      Eu  0.18852611  0.25052654  0.49809581     2.39200
O172        O  0.22114099  0.28150616  0.46849404    -0.90000
O173        O  0.21845200  0.21858784  0.02942290    -0.93600
C174        C  0.17088376  0.17252093  0.49844690     1.01100
C175        C  0.17477815  0.32931933  0.49977596     1.00900
C176        C  0.17034470  0.24965147  0.07573807     1.00900
C177        C  0.17401248  0.25400903  0.41950032     0.94300
H178        H  0.20697030  0.29275081  0.04258507     0.28500
O179        O  0.21994038  0.28007233  0.02993193    -1.02400
H180        H  0.20659008  0.20720671  0.45359423     0.28500
O181        O  0.21937567  0.21945817  0.46680469    -1.04900
O182        O  0.30443629  0.33407075  0.50272244    -0.82100
O183        O  0.29865888  0.16130902  0.49890164    -0.81700
O184        O  0.24774138  0.29816379  0.08761990    -0.80100
O185        O  0.25376760  0.30109621  0.41328894    -0.83500
O186        O  0.25213665  0.20128115  0.41083871    -0.81300
O187        O  0.24856435  0.19810596  0.08588144    -0.80000
O188        O  0.33733631  0.24852785  0.05149301    -0.81500
O189        O  0.33972326  0.24678568  0.45137618    -0.83400
O190        O  0.29933194  0.24969211  0.08764027    -0.80100
O191        O  0.30316114  0.24951059  0.41386973    -0.82800
O192        O  0.24972076  0.33524811  0.05116739    -0.78600
O193        O  0.24842005  0.16195925  0.04830627    -0.78600
O194        O  0.25160261  0.16411398  0.44748794    -0.78200
O195        O  0.25404514  0.33726550  0.45080864    -0.81700
O196        O  0.34074000  0.29642018  0.50084178    -0.81200
O197        O  0.33703088  0.19692706  0.49986677    -0.79500
Eu198      Eu  0.25284769  0.31096488  0.50050246     2.39800
Eu199      Eu  0.24950641  0.18792207  0.49836035     2.39600
Eu200      Eu  0.24958239  0.24849284  0.06145206     2.38400
Eu201      Eu  0.25208465  0.25063765  0.43738592     2.39900
Eu202      Eu  0.31335421  0.24769348  0.50072530     2.39800
O203        O  0.28187197  0.21853063  0.46848183    -0.93900
O204        O  0.28244579  0.27920506  0.03186027    -0.92800
C205        C  0.33255067  0.32456708  0.50220121     1.01300
C206        C  0.32714223  0.16924330  0.49957181     1.00000
C207        C  0.24772681  0.32633758  0.07925440     0.99400
C208        C  0.25436528  0.32896918  0.42248742     1.01400
C209        C  0.25244902  0.17317954  0.41942896     1.00300
C210        C  0.24811016  0.17022034  0.07661670     0.99200
C211        C  0.32779514  0.24983191  0.07938820     0.99200
C212        C  0.33123293  0.24766932  0.42316907     1.01800
H213        H  0.29338055  0.20419967  0.04378784     0.29200
O214        O  0.28102584  0.21721848  0.03094148    -1.06100
H215        H  0.29723031  0.29254004  0.45712900     0.31300
O216        O  0.28381770  0.27999266  0.46940599    -1.08600
C217        C  0.25152571  0.10078590  0.14634830    -0.07200
C218        C  0.23383193  0.09620795  0.11987243    -0.18300
C219        C  0.23163253  0.11855686  0.09714982     0.10000
C220        C  0.24817423  0.14609664  0.10032628    -0.07100
C221        C  0.26631580  0.15043063  0.12652845    -0.18300
C222        C  0.26853189  0.12808758  0.14922184     0.10100
S223        S  0.20584232  0.11115125  0.06572837    -0.33300
S224        S  0.29471746  0.13530575  0.18036546    -0.33300
H225        H  0.30534177  0.10514989  0.18239398     0.28100
H226        H  0.19460485  0.14109625  0.06388498     0.28100
H227        H  0.22055783  0.07549684  0.11738995     0.18600
H228        H  0.27967265  0.17110156  0.12895485     0.18700
C229        C  0.24929617  0.39704218  0.14845458    -0.07200
C230        C  0.23569565  0.36874385  0.15497190    -0.18300
C231        C  0.23380369  0.34563512  0.13292576     0.10000
C232        C  0.24619837  0.35042097  0.10331392    -0.07100
C233        C  0.25894063  0.37904241  0.09665824    -0.18300
C234        C  0.26160557  0.40177291  0.11885969     0.10100
S235        S  0.21376815  0.31143383  0.14388610    -0.33300
S236        S  0.28319058  0.43519134  0.10830428    -0.33300
H237        H  0.29934538  0.43676404  0.13612880     0.28100
H238        H  0.19791731  0.30857896  0.11602720     0.28100
H239        H  0.22568799  0.36476409  0.17729495     0.18600
H240        H  0.26817768  0.38348776  0.07415155     0.18700
C241        C  0.24959227  0.39891267  0.35333794    -0.07200
C242        C  0.26740381  0.37272509  0.34836648    -0.18300
C243        C  0.27023264  0.35008162  0.37068963     0.10000
C244        C  0.25454805  0.35320731  0.39887082    -0.07100
C245        C  0.23682514  0.37944598  0.40391916    -0.18300
C246        C  0.23361376  0.40186823  0.38137975     0.10100
S247        S  0.29526555  0.31849985  0.36206609    -0.33300
S248        S  0.20692001  0.43231978  0.38908877    -0.33300
H249        H  0.19598470  0.43461753  0.35893539     0.28100
H250        H  0.30714450  0.31582537  0.39184706     0.28100
H251        H  0.27997266  0.37020243  0.32713169     0.18600
H252        H  0.22412520  0.38185128  0.42509532     0.18700
C253        C  0.24975884  0.10289391  0.35108568    -0.07200
C254        C  0.27001920  0.10042983  0.37590031    -0.18300
C255        C  0.27237092  0.12357981  0.39770941     0.10000
C256        C  0.25327687  0.14952089  0.39541383    -0.07100
C257        C  0.23313084  0.15206763  0.37047803    -0.18300
C258        C  0.23086627  0.12895958  0.34858061     0.10100
S259        S  0.30137292  0.11932623  0.42688769    -0.33300
S260        S  0.20229271  0.13341873  0.31898203    -0.33300
H261        H  0.19438067  0.10243433  0.31738842     0.28100
H262        H  0.30833542  0.15046794  0.42922549     0.28100
H263        H  0.28496724  0.08079096  0.37771653     0.18600
H264        H  0.21816373  0.17168869  0.36867097     0.18700
C265        C  0.39587492  0.15065598  0.24814129    -0.07200
C266        C  0.37099103  0.15281872  0.26843806    -0.18300
C267        C  0.34877140  0.12979539  0.27028203     0.10000
C268        C  0.35149963  0.10358749  0.25160624    -0.07100
C269        C  0.37600549  0.10180404  0.23084434    -0.18300
C270        C  0.39747298  0.12539885  0.22821000     0.10100
S271        S  0.31805999  0.13507989  0.29750519    -0.33300
S272        S  0.42449893  0.12322987  0.19710130    -0.33300
H273        H  0.42537582  0.15473676  0.19157037     0.28100
H274        H  0.31609769  0.10430321  0.30598922     0.28100
H275        H  0.36923085  0.17226495  0.28354921     0.18600
H276        H  0.37752526  0.08258754  0.21541159     0.18700
C277        C  0.39917902  0.35467975  0.25190275    -0.07200
C278        C  0.37161345  0.34876157  0.23623896    -0.18300
C279        C  0.34867685  0.37086606  0.23341593     0.10000
C280        C  0.35261592  0.39951772  0.24754648    -0.07100
C281        C  0.38032941  0.40565627  0.26278268    -0.18300
C282        C  0.40342179  0.38371553  0.26526447     0.10100
S283        S  0.31594232  0.36153212  0.20990999    -0.33300
S284        S  0.43691190  0.39412810  0.28697806    -0.33300
H285        H  0.43899302  0.36603335  0.30222506     0.28100
H286        H  0.31356580  0.39059216  0.19664660     0.28100
H287        H  0.36829947  0.32702027  0.22506282     0.18600
H288        H  0.38370450  0.42748289  0.27379315     0.18700
C289        C  0.10218542  0.14880496  0.25173938    -0.07200
C290        C  0.13019749  0.15420479  0.23681643    -0.18300
C291        C  0.15252401  0.13155423  0.23426414     0.10000
C292        C  0.14771225  0.10306255  0.24853476    -0.07100
C293        C  0.11998395  0.09788820  0.26410218    -0.18300
C294        C  0.09751614  0.12046166  0.26623159     0.10100
S295        S  0.18549147  0.14002279  0.21071903    -0.33300
S296        S  0.06477504  0.11243619  0.28997846    -0.33300
H297        H  0.06388686  0.14158322  0.30327268     0.28100
H298        H  0.18690831  0.11096873  0.19732586     0.28100
H299        H  0.13439423  0.17598050  0.22610550     0.18600
H300        H  0.11621416  0.07645760  0.27575301     0.18700
C301        C  0.10374892  0.35220333  0.24906840    -0.07200
C302        C  0.12408571  0.35398440  0.27386426    -0.18300
C303        C  0.14525068  0.37783801  0.27615718     0.10000
C304        C  0.14617897  0.40024717  0.25304982    -0.07100
C305        C  0.12565831  0.39858882  0.22843185    -0.18300
C306        C  0.10497565  0.37443554  0.22587625     0.10100
S307        S  0.16986424  0.37884200  0.30938338    -0.33300
S308        S  0.08220001  0.37203652  0.19157765    -0.33300
H309        H  0.08174659  0.34008052  0.19017632     0.28100
H310        H  0.17342284  0.41060919  0.31029089     0.28100
H311        H  0.12296556  0.33711159  0.29188146     0.18600
H312        H  0.12678512  0.41540301  0.21034002     0.18700
C313        C  0.39656587  0.25030128  0.14976578    -0.07200
C314        C  0.37033017  0.26857878  0.15288076    -0.18300
C315        C  0.34790899  0.26956407  0.12999424     0.10000
C316        C  0.35133051  0.25125868  0.10360857    -0.07100
C317        C  0.37768478  0.23317078  0.10046866    -0.18300
C318        C  0.40003307  0.23217634  0.12330604     0.10100
S319        S  0.31651783  0.29589286  0.13515971    -0.33300
S320        S  0.43148514  0.20600610  0.11795873    -0.33300
H321        H  0.43208895  0.19627165  0.14858013     0.28100
H322        H  0.31491884  0.30457026  0.10425885     0.28100
H323        H  0.36777662  0.28298375  0.17281686     0.18600
H324        H  0.38041212  0.21885482  0.08049129     0.18700
C325        C  0.10048138  0.24788987  0.14485547    -0.07200
C326        C  0.10189495  0.27238922  0.12437457    -0.18300
C327        C  0.12466616  0.27382786  0.10180503     0.10000
C328        C  0.14629444  0.24998674  0.09934401    -0.07100
C329        C  0.14481779  0.22546781  0.11975484    -0.18300
C330        C  0.12179120  0.22384477  0.14199664     0.10100
S331        S  0.12560054  0.30722281  0.07783758    -0.33300
S332        S  0.11975169  0.18967389  0.16458891    -0.33300
H333        H  0.08781685  0.19041472  0.16955267     0.28100
H334        H  0.15762333  0.30771579  0.07357386     0.28100
H335        H  0.08565653  0.29096280  0.12654696     0.18600
H336        H  0.16113711  0.20694424  0.11768012     0.18700
C337        C  0.10553801  0.25175488  0.34928626    -0.07200
C338        C  0.12731260  0.27531744  0.34947931    -0.18300
C339        C  0.14952902  0.27719217  0.37255844     0.10000
C340        C  0.15037975  0.25461871  0.39552384    -0.07100
C341        C  0.12863958  0.23108917  0.39521213    -0.18300
C342        C  0.10648471  0.22921893  0.37222820     0.10100
S343        S  0.17512602  0.30950748  0.37222268    -0.33300
S344        S  0.08084650  0.19691955  0.37282236    -0.33300
H345        H  0.07815759  0.19416060  0.34091904     0.28100
H346        H  0.17795314  0.31185374  0.40415516     0.28100
H347        H  0.12638035  0.29286458  0.33210996     0.18600
H348        H  0.12948750  0.21351292  0.41256862     0.18700
C349        C  0.40135536  0.25106846  0.35450166    -0.07200
C350        C  0.37479213  0.23363269  0.34965357    -0.18300
C351        C  0.35204099  0.23133033  0.37194576     0.10000
C352        C  0.35553465  0.24718807  0.39979280    -0.07100
C353        C  0.38232299  0.26425973  0.40491632    -0.18300
C354        C  0.40506905  0.26671202  0.38251287     0.10100
S355        S  0.31981360  0.20680860  0.36379207    -0.33300
S356        S  0.43718254  0.29146833  0.39059025    -0.33300
H357        H  0.43905932  0.30356472  0.36088054     0.28100
H358        H  0.31768298  0.19519355  0.39365596     0.28100
H359        H  0.37202301  0.22104629  0.32853530     0.18600
H360        H  0.38500756  0.27679503  0.42607379     0.18700
C361        C  0.35699374  0.34776213  0.00261429    -0.07200
C362        C  0.38180584  0.34491056  0.48202487    -0.18300
C363        C  0.40413697  0.36774573  0.47950027     0.10000
C364        C  0.40143035  0.39431697  0.99869806    -0.07100
C365        C  0.37805445  0.39560703  0.02066422    -0.18300
C366        C  0.35644665  0.37230251  0.02337273     0.10100
S367        S  0.43393261  0.36250806  0.45125175    -0.33300
S368        S  0.33024013  0.37422219  0.05516977    -0.33300
H369        H  0.32743711  0.34261992  0.05924442     0.28100
H370        H  0.43677567  0.39344457  0.44365864     0.28100
H371        H  0.38309633  0.32530660  0.46707112     0.18600
H372        H  0.37737962  0.41436929  0.03671601     0.18700
C373        C  0.35054276  0.14524010  0.99981111    -0.07200
C374        C  0.37479670  0.14678373  0.47922795    -0.18300
C375        C  0.39643881  0.12347854  0.47704502     0.10000
C376        C  0.39485205  0.09864258  0.99683739    -0.07100
C377        C  0.36986811  0.09631210  0.01698606    -0.18300
C378        C  0.34772584  0.11929407  0.01870849     0.10100
S379        S  0.42476991  0.12645026  0.44723926    -0.33300
S380        S  0.31725572  0.11469777  0.04633798    -0.33300
H381        H  0.31612928  0.14554295  0.05477264     0.28100
H382        H  0.42563795  0.09512418  0.44072265     0.28100
H383        H  0.37653374  0.16612637  0.46395543     0.18600
H384        H  0.36810297  0.07692260  0.03218365     0.18700
C385        C  0.15059854  0.35312275  0.00059384    -0.07200
C386        C  0.12363384  0.34870430  0.48455563    -0.18300
C387        C  0.10112100  0.37123616  0.48261561     0.10000
C388        C  0.10511675  0.39931760  0.99688121    -0.07100
C389        C  0.13382937  0.40508017  0.01036837    -0.18300
C390        C  0.15583667  0.38206682  0.01374775     0.10100
S391        S  0.06763671  0.36199336  0.46068118    -0.33300
S392        S  0.18848096  0.39026415  0.03776169    -0.33300
H393        H  0.18820944  0.36165314  0.05223007     0.28100
H394        H  0.06634015  0.39043501  0.44598606     0.28100
H395        H  0.11969317  0.32716792  0.47316164     0.18600
H396        H  0.13866184  0.42728931  0.01976979     0.18700
C397        C  0.14711769  0.14840712  0.99905563    -0.07200
C398        C  0.12224497  0.15183258  0.01921851    -0.18300
C399        C  0.09987105  0.12910796  0.02230599     0.10000
C400        C  0.10168790  0.10259521  0.00411489    -0.07100
C401        C  0.12712860  0.09868512  0.48583504    -0.18300
C402        C  0.14963001  0.12117812  0.48269718     0.10100
S403        S  0.07084425  0.13460273  0.05115345    -0.33300
S404        S  0.18050316  0.11369663  0.45616449    -0.33300
H405        H  0.18216228  0.14363844  0.44495025     0.28100
H406        H  0.06785151  0.10366615  0.05876504     0.28100
H407        H  0.12081881  0.17191377  0.03350491     0.18600
H408        H  0.12927781  0.07800467  0.47253138     0.18700
C409        C  0.39807032  0.00026939  0.39743339    -0.07200
C410        C  0.37092495  0.48344585  0.40223113    -0.18300
C411        C  0.34820015  0.48157413  0.37974651     0.10000
C412        C  0.35220259  0.99753003  0.35183846    -0.07100
C413        C  0.37932509  0.01408922  0.34699323    -0.18300
C414        C  0.40203881  0.01596474  0.36945527     0.10100
S415        S  0.31555407  0.45744779  0.38762220    -0.33300
S416        S  0.43460568  0.04005423  0.36131916    -0.33300
H417        H  0.43625157  0.05247962  0.39089053     0.28100
H418        H  0.31358886  0.44572512  0.35777378     0.28100
H419        H  0.36778987  0.47090529  0.42332932     0.18600
H420        H  0.38239735  0.02665958  0.32590188     0.18700
C421        C  0.10298965  0.99947184  0.39948790    -0.07200
C422        C  0.12910443  0.01782790  0.40330117    -0.18300
C423        C  0.15171282  0.01957194  0.38067897     0.10000
C424        C  0.14841068  0.00222347  0.35363703    -0.07100
C425        C  0.12250224  0.48365538  0.35001252    -0.18300
C426        C  0.10014824  0.48161245  0.37279404     0.10100
S427        S  0.18335365  0.04532876  0.38730834    -0.33300
S428        S  0.06974819  0.45423796  0.36724294    -0.33300
H429        H  0.06892219  0.44476442  0.39795817     0.28100
H430        H  0.18601361  0.05483464  0.35673877     0.28100
H431        H  0.13147287  0.03167128  0.42365921     0.18600
H432        H  0.12025598  0.46962226  0.32977419     0.18700
C433        C  0.14645531  0.00151135  0.14890556    -0.07200
C434        C  0.14673563  0.47862514  0.12665180    -0.18300
C435        C  0.12357203  0.47682462  0.10465951     0.10000
C436        C  0.10022916  0.99903483  0.10409911    -0.07100
C437        C  0.09977790  0.02182935  0.12646721    -0.18300
C438        C  0.12285922  0.02355551  0.14861134     0.10100
S439        S  0.12408457  0.44456103  0.07936077    -0.33300
S440        S  0.12186660  0.05532404  0.17468275    -0.33300
H441        H  0.15395230  0.05852271  0.17729233     0.28100
H442        H  0.09206740  0.44235471  0.07567717     0.28100
H443        H  0.16453306  0.46136497  0.12711098     0.18600
H444        H  0.08194283  0.03904148  0.12600137     0.18700
C445        C  0.39621918  0.99528695  0.10151674    -0.07200
C446        C  0.36955425  0.01256635  0.09652354    -0.18300
C447        C  0.34678896  0.01498495  0.11888163     0.10000
C448        C  0.35028184  0.99913719  0.14679561    -0.07100
C449        C  0.37677625  0.48151406  0.15163831    -0.18300
C450        C  0.39953386  0.47911198  0.12927037     0.10100
S451        S  0.31498850  0.04015388  0.11098927    -0.33300
S452        S  0.43125505  0.45385057  0.13703628    -0.33300
H453        H  0.43342723  0.44285697  0.10692931     0.28100
H454        H  0.31332938  0.05194158  0.14082587     0.28100
H455        H  0.36698293  0.02534307  0.07548893     0.18600
H456        H  0.37934507  0.46878738  0.17270199     0.18700
C457        C  0.00040989  0.10264104  0.39803984    -0.07200
C458        C  0.99210356  0.13251337  0.40608300    -0.18300
C459        C  0.98935412  0.15567906  0.38425122     0.10000
C460        C  0.99635973  0.14960648  0.35317616    -0.07100
C461        C  0.50423160  0.11966237  0.34511767    -0.18300
C462        C  0.50744073  0.09663586  0.36697010     0.10100
S463        S  0.97495320  0.19172734  0.39772761    -0.33300
S464        S  0.52318731  0.06111248  0.35358536    -0.33300
H465        H  0.54423711  0.05843154  0.37788607     0.28100
H466        H  0.95484912  0.19587439  0.37288179     0.28100
H467        H  0.98699880  0.13793407  0.42965552     0.18600
H468        H  0.50913049  0.11422151  0.32155369     0.18700
C469        C  0.00044089  0.39842113  0.39772649    -0.07200
C470        C  0.50969739  0.36874688  0.40545279    -0.18300
C471        C  0.51402655  0.34618509  0.38325112     0.10000
C472        C  0.00626633  0.35246478  0.35248307    -0.07100
C473        C  0.99667023  0.38197899  0.34480469    -0.18300
C474        C  0.99308700  0.40465357  0.36683379     0.10100
S475        S  0.53248329  0.31095768  0.39435433    -0.33300
S476        S  0.97690078  0.44013235  0.35388665    -0.33300
H477        H  0.95537092  0.44170510  0.37787033     0.28100
H478        H  0.52991458  0.31480514  0.42612600     0.28100
H479        H  0.51430796  0.36331814  0.42899211     0.18600
H480        H  0.99111035  0.38741898  0.32138639     0.18700
C481        C  0.99488065  0.35363527  0.14882406    -0.07200
C482        C  0.00898177  0.38166247  0.15511642    -0.18300
C483        C  0.01193020  0.40406311  0.13271935     0.10000
C484        C  0.99904620  0.39920294  0.10342136    -0.07100
C485        C  0.48405293  0.37156824  0.09739122    -0.18300
C486        C  0.48142286  0.34901279  0.11975927     0.10100
S487        S  0.03427991  0.43722097  0.14261945    -0.33300
S488        S  0.45884826  0.31590997  0.11032608    -0.33300
H489        H  0.44458119  0.31408027  0.13914760     0.28100
H490        H  0.04937809  0.43898278  0.11425747     0.28100
H491        H  0.01901924  0.38576228  0.17736340     0.18600
H492        H  0.47340530  0.36783069  0.07532054     0.18700
C493        C  0.99916781  0.14955469  0.14703542    -0.07200
C494        C  0.49365196  0.11924145  0.15578154    -0.18300
C495        C  0.49145322  0.09569017  0.13439313     0.10000
C496        C  0.99591800  0.10190881  0.10290389    -0.07100
C497        C  0.00119964  0.13221821  0.09411726    -0.18300
C498        C  0.00342304  0.15575711  0.11547232     0.10100
S499        S  0.48145917  0.05873065  0.14925388    -0.33300
S500        S  0.01336559  0.19261635  0.10038243    -0.33300
H501        H  0.03801867  0.19671509  0.12080183     0.28100
H502        H  0.45740803  0.05433816  0.12817152     0.28100
H503        H  0.49028592  0.11367653  0.17965006     0.18600
H504        H  0.00460067  0.13776275  0.07024895     0.18700
O505        O  0.99734184  0.04944211  0.58745098    -0.81200
O506        O  0.99959290  0.04986107  0.91346802    -0.82700
O507        O  0.04870091  0.08761472  0.50384038    -0.79800
O508        O  0.44689351  0.08432741  0.49795232    -0.78100
O509        O  0.41038211  0.04676263  0.49927063    -0.79900
O510        O  0.08640777  0.05128167  0.50360524    -0.80900
O511        O  0.00038602  0.08674317  0.95004377    -0.82200
O512        O  0.99573012  0.08627267  0.55089432    -0.82500
Eu513      Eu  0.99844194  0.06162628  0.50058871     2.39200
O514        O  0.46815498  0.03004512  0.96947247    -0.90000
O515        O  0.02975465  0.03111497  0.53174241    -0.93600
C516        C  0.99588036  0.07750089  0.57907386     1.01100
C517        C  0.00037635  0.07797023  0.92184267     1.00900
C518        C  0.07717602  0.07916133  0.50444191     1.00900
C519        C  0.41877585  0.07487657  0.49794599     0.98700
H520        H  0.04381853  0.04421516  0.95730463     0.28500
O521        O  0.03101915  0.03135091  0.96988111    -1.02400
H522        H  0.45364102  0.04220679  0.54363233     0.28500
O523        O  0.46707886  0.03000697  0.53103421    -1.04900
O524        O  0.00069748  0.44988203  0.91408035    -0.82100
O525        O  0.99811150  0.45036156  0.58752809    -0.81700
O526        O  0.08765966  0.00146567  0.95116624    -0.80100
O527        O  0.41233514  0.99897807  0.94980094    -0.83500
O528        O  0.41155157  0.99601499  0.54947611    -0.81300
O529        O  0.08603737  0.99966197  0.55217032    -0.80000
O530        O  0.05324713  0.41463723  0.49864697    -0.81500
O531        O  0.45347165  0.41048630  0.49862140    -0.83400
O532        O  0.08977499  0.45192622  0.49880614    -0.80100
O533        O  0.41510731  0.44616576  0.49853003    -0.82800
O534        O  0.05062731  0.99935207  0.91405449    -0.78600
O535        O  0.04807406  0.00051842  0.58849916    -0.78600
O536        O  0.44823201  0.99709039  0.58688484    -0.78200
O537        O  0.45005846  0.99989767  0.91344472    -0.81700
O538        O  0.00083145  0.41294481  0.95062232    -0.81200
O539        O  0.00134986  0.41342470  0.55095034    -0.79500
Eu540      Eu  0.00028321  0.99998562  0.93887323     2.39800
Eu541      Eu  0.99861454  0.99969865  0.56207513     2.39600
Eu542      Eu  0.06224682  0.00094806  0.50132010     2.38400
Eu543      Eu  0.43744050  0.99781854  0.49976336     2.39900
Eu544      Eu  0.00194867  0.43805902  0.50030219     2.39800
O545        O  0.46898186  0.46757507  0.53094872    -0.93900
O546        O  0.03209955  0.46955778  0.96965719    -0.92800
C547        C  0.00032695  0.42177483  0.92249461     1.01300
C548        C  0.99981244  0.42239149  0.57903607     1.00000
C549        C  0.07884433  0.00002704  0.92305802     0.99400
C550        C  0.42162314  0.99985619  0.92179758     1.01400
C551        C  0.42010610  0.99577646  0.57769611     1.00300
C552        C  0.07644900  0.99979050  0.58007989     0.99200
C553        C  0.08145363  0.42372144  0.49779727     0.99200
C554        C  0.42500012  0.41842780  0.49806722     1.01800
H555        H  0.04448946  0.45673915  0.54492263     0.29200
O556        O  0.03165909  0.46930645  0.53209960    -1.06100
H557        H  0.45724234  0.45548456  0.95647133     0.31300
O558        O  0.46971036  0.46828782  0.96941323    -1.08600
O559        O  0.99841319  0.20149547  0.66310636    -0.81200
O560        O  0.00064967  0.20092848  0.83732123    -0.82700
O561        O  0.05032095  0.16433850  0.75047859    -0.79800
O562        O  0.44869874  0.16495489  0.74853860    -0.78100
O563        O  0.41187238  0.20208306  0.75121492    -0.79900
O564        O  0.08788474  0.20080668  0.75040399    -0.80900
O565        O  0.99682286  0.16448661  0.80047677    -0.82200
O566        O  0.00008875  0.16453622  0.69954041    -0.82500
Eu567      Eu  0.99977301  0.18929041  0.74994708     2.39200
O568        O  0.46966668  0.22032264  0.78169161    -0.90000
O569        O  0.03090114  0.21998274  0.71844382    -0.93600
C570        C  0.99934281  0.17336651  0.67138055     1.01100
C571        C  0.99769077  0.17303253  0.82874164     1.00900
C572        C  0.07871804  0.17292232  0.75111234     1.00900
C573        C  0.42042994  0.17399379  0.74935853     0.98700
H574        H  0.04523653  0.20679777  0.79283465     0.28500
O575        O  0.03253456  0.21955982  0.78011026    -1.02400
H576        H  0.45549368  0.20840217  0.70713754     0.28500
O577        O  0.46858843  0.22086533  0.71978333    -1.04900
O578        O  0.00442124  0.30001369  0.83718518    -0.82100
O579        O  0.99755558  0.30152396  0.66353000    -0.81700
O580        O  0.08987725  0.25233670  0.79777795    -0.80100
O581        O  0.41522522  0.25126121  0.80269225    -0.83500
O582        O  0.41176011  0.25186710  0.70193094    -0.81300
O583        O  0.08713418  0.24800352  0.69744389    -0.80000
O584        O  0.05174948  0.33736044  0.74888059    -0.81500
O585        O  0.45156689  0.33882832  0.75136301    -0.83400
O586        O  0.08902496  0.30051336  0.74905917    -0.80100
O587        O  0.41396286  0.30253409  0.75206174    -0.82800
O588        O  0.05341016  0.25016966  0.83548660    -0.78600
O589        O  0.04901084  0.25051977  0.66140231    -0.78600
O590        O  0.44870870  0.25152242  0.66467076    -0.78200
O591        O  0.45344489  0.25092418  0.83856536    -0.81700
O592        O  0.00461898  0.33708445  0.80078777    -0.81200
O593        O  0.99754907  0.33800606  0.70067749    -0.79500
Eu594      Eu  0.00244009  0.25057802  0.81167252     2.39800
Eu595      Eu  0.99955988  0.25144001  0.68833110     2.39600
Eu596      Eu  0.06321510  0.25072070  0.74845235     2.38400
Eu597      Eu  0.43820934  0.25181008  0.75155181     2.39900
Eu598      Eu  0.00132504  0.31268391  0.75037218     2.39800
O599        O  0.46915718  0.28230701  0.71999534    -0.93900
O600        O  0.03300564  0.28147075  0.78029964    -0.92800
C601        C  0.00533587  0.32809347  0.82888168     1.01300
C602        C  0.99645875  0.32945091  0.67250927     1.00000
C603        C  0.08146463  0.25128108  0.82600615     0.99400
C604        C  0.42498437  0.25122155  0.83054845     1.01400
C605        C  0.42052215  0.25125402  0.67374458     1.00300
C606        C  0.07744104  0.24864795  0.66954993     0.99200
C607        C  0.07999030  0.32846532  0.74896311     0.99200
C608        C  0.42313993  0.33050777  0.75192127     1.01800
H609        H  0.04448516  0.29492729  0.70500345     0.29200
O610        O  0.03196225  0.28231188  0.71811187    -1.06100
H611        H  0.45825051  0.29501552  0.79532282     0.31300
O612        O  0.47046258  0.28220731  0.78211525    -1.08600
O613        O  0.33565354  0.50026401  0.69861312    -0.81200
O614        O  0.16154359  0.50262115  0.70046736    -0.82700
O615        O  0.24842588  0.44917003  0.66361921    -0.79800
O616        O  0.24887246  0.04910724  0.66212383    -0.78100
O617        O  0.25075833  0.08624452  0.69865333    -0.79900
O618        O  0.24890813  0.41259631  0.70064335    -0.80900
O619        O  0.19829251  0.49942124  0.66310790    -0.82200
O620        O  0.29799145  0.49859484  0.66212834    -0.82500
Eu621      Eu  0.24848860  0.49957994  0.68816759     2.39200
O622        O  0.21795148  0.03137105  0.71884514    -0.90000
O623        O  0.28000862  0.46934212  0.71928974    -0.93600
C624        C  0.32632460  0.49947728  0.67060056     1.01100
C625        C  0.17021953  0.50132913  0.67230515     1.00900
C626        C  0.24900767  0.42113634  0.67237660     1.00900
C627        C  0.25032668  0.07720384  0.67056794     0.98700
H628        H  0.20420490  0.45655950  0.70708981     0.28500
O629        O  0.21725804  0.46924191  0.71959442    -1.02400
H630        H  0.29325979  0.04342208  0.70529336     0.28500
O631        O  0.28045108  0.03087526  0.71819798    -1.04900
O632        O  0.16241721  0.50171752  0.80122905    -0.82100
O633        O  0.33679421  0.49858093  0.79993058    -0.81700
O634        O  0.19790568  0.41496639  0.75248381    -0.80100
O635        O  0.19998982  0.08748149  0.74916696    -0.83500
O636        O  0.29980335  0.08736906  0.75085728    -0.81300
O637        O  0.29977455  0.41406092  0.74895733    -0.80000
O638        O  0.24886411  0.45085387  0.83769956    -0.81500
O639        O  0.25072071  0.05094059  0.83667987    -0.83400
O640        O  0.24930523  0.41381102  0.80105895    -0.80100
O641        O  0.25030224  0.08729404  0.79924843    -0.82800
O642        O  0.16073773  0.45192716  0.75077809    -0.78600
O643        O  0.33690176  0.45089529  0.74768597    -0.78600
O644        O  0.33730902  0.05091196  0.75041045    -0.78200
O645        O  0.16224432  0.05132294  0.74981125    -0.81700
O646        O  0.20003602  0.50097765  0.83779846    -0.81200
O647        O  0.29975473  0.49935377  0.83702107    -0.79500
Eu648      Eu  0.18693903  0.50118288  0.75055855     2.39800
Eu649      Eu  0.31172618  0.50058947  0.74953904     2.39600
Eu650      Eu  0.24894745  0.43863963  0.75054529     2.38400
Eu651      Eu  0.24985221  0.06192977  0.74939224     2.39900
Eu652      Eu  0.24974105  0.50067119  0.81190659     2.39800
O653        O  0.28104306  0.03149863  0.78081706    -0.93900
O654        O  0.21799003  0.46993788  0.78144339    -0.92800
C655        C  0.17170970  0.50170985  0.82925837     1.01300
C656        C  0.32795229  0.49819503  0.82812455     1.00000
C657        C  0.16968987  0.42400968  0.75205469     0.99400
C658        C  0.17158377  0.07917037  0.74903588     1.01400
C659        C  0.32815306  0.07890652  0.75121018     1.00300
C660        C  0.32808007  0.42288378  0.74765883     0.99200
C661        C  0.24887318  0.42273622  0.82919225     0.99200
C662        C  0.25041156  0.07885218  0.82747534     1.01800
H663        H  0.29346155  0.45676071  0.79346457     0.29200
O664        O  0.28066867  0.46960049  0.78085879    -1.06100
H665        H  0.20601098  0.04479047  0.79391041     0.31300
O666        O  0.21857962  0.03188051  0.78117881    -1.08600
O667        O  0.19936853  0.16317909  0.99819884    -0.81200
O668        O  0.20272931  0.33691934  0.99981526    -0.82700
O669        O  0.16194740  0.25073397  0.54764875    -0.79800
O670        O  0.16475332  0.25186565  0.94728728    -0.78100
O671        O  0.20265076  0.25394375  0.91095964    -0.79900
O672        O  0.19857703  0.24770800  0.58518070    -0.80900
O673        O  0.16473251  0.30096555  0.99926312    -0.82200
O674        O  0.16252916  0.20030632  0.99863718    -0.82500
Eu675      Eu  0.18854854  0.25026579  0.99809546     2.39200
O676        O  0.22104834  0.28139364  0.96851383    -0.90000
O677        O  0.21839627  0.21872300  0.52934373    -0.93600
C678        C  0.17117631  0.17217707  0.99842448     1.01100
C679        C  0.17422613  0.32880693  0.00003252     1.00900
C680        C  0.17048908  0.24934017  0.57586274     1.00900
C681        C  0.17424693  0.25358030  0.91940908     0.94300
H682        H  0.20709069  0.29284545  0.54261821     0.28500
O683        O  0.22004064  0.28015346  0.52997276    -1.02400
H684        H  0.20678750  0.20696631  0.95360455     0.28500
O685        O  0.21950187  0.21927676  0.96683389    -1.04900
O686        O  0.30429353  0.33409720  0.00279815    -0.82100
O687        O  0.29900326  0.16155847  0.99902511    -0.81700
O688        O  0.24765272  0.29804301  0.58765248    -0.80100
O689        O  0.25363228  0.30104891  0.91331641    -0.83500
O690        O  0.25262945  0.20114293  0.91110072    -0.81300
O691        O  0.24874299  0.19799646  0.58578680    -0.80000
O692        O  0.33746375  0.24822088  0.55147108    -0.81500
O693        O  0.33968089  0.24686666  0.95155255    -0.83400
O694        O  0.29945439  0.24960508  0.58761601    -0.80100
O695        O  0.30320495  0.24963621  0.91399977    -0.82800
O696        O  0.24982548  0.33509564  0.55119202    -0.78600
O697        O  0.24825023  0.16190501  0.54816017    -0.78600
O698        O  0.25220450  0.16392058  0.94768704    -0.78200
O699        O  0.25398349  0.33726345  0.95079154    -0.81700
O700        O  0.34068539  0.29652675  0.00056313    -0.81200
O701        O  0.33722438  0.19732778  0.99990236    -0.79500
Eu702      Eu  0.25262510  0.31102419  0.00050845     2.39800
Eu703      Eu  0.24969254  0.18786863  0.99846420     2.39600
Eu704      Eu  0.24966794  0.24842132  0.56142378     2.38400
Eu705      Eu  0.25214950  0.25059331  0.93748298     2.39900
Eu706      Eu  0.31325804  0.24789523  0.00081101     2.39800
O707        O  0.28195646  0.21858261  0.96860443    -0.93900
O708        O  0.28260541  0.27904118  0.53180464    -0.92800
C709        C  0.33242728  0.32463305  0.00206573     1.01300
C710        C  0.32745195  0.16961525  0.99964408     1.00000
C711        C  0.24768250  0.32621068  0.57927475     0.99400
C712        C  0.25427607  0.32893757  0.92247665     1.01400
C713        C  0.25308918  0.17302618  0.91964326     1.00300
C714        C  0.24811393  0.17012804  0.57648470     0.99200
C715        C  0.32792765  0.24961039  0.57937567     0.99200
C716        C  0.33125322  0.24773586  0.92333573     1.01800
H717        H  0.29331069  0.20404281  0.54364138     0.29200
O718        O  0.28099166  0.21711907  0.53082220    -1.06100
H719        H  0.29709629  0.29267036  0.95718531     0.31300
O720        O  0.28370424  0.28011500  0.96947358    -1.08600
C721        C  0.25117352  0.10067379  0.64619509    -0.07200
C722        C  0.23313798  0.09634580  0.61990652    -0.18300
C723        C  0.23110230  0.11869888  0.59716754     0.10000
C724        C  0.24810891  0.14598105  0.60016649    -0.07100
C725        C  0.26656148  0.15005953  0.62619367    -0.18300
C726        C  0.26863442  0.12770127  0.64888239     0.10100
S727        S  0.20496513  0.11165538  0.56594630    -0.33300
S728        S  0.29525814  0.13446556  0.67975588    -0.33300
H729        H  0.30557538  0.10418158  0.68143994     0.28100
H730        H  0.19423422  0.14177975  0.56408740     0.28100
H731        H  0.21952429  0.07583256  0.61757716     0.18600
H732        H  0.28026505  0.17052395  0.62847313     0.18700
C733        C  0.24918361  0.39700325  0.64839010    -0.07200
C734        C  0.23585974  0.36860008  0.65503427    -0.18300
C735        C  0.23389388  0.34548787  0.63299964     0.10000
C736        C  0.24604705  0.35032633  0.60330265    -0.07100
C737        C  0.25844681  0.37905973  0.59651296    -0.18300
C738        C  0.26114386  0.40182645  0.61866482     0.10100
S739        S  0.21391554  0.31128096  0.64403791    -0.33300
S740        S  0.28226209  0.43544166  0.60779474    -0.33300
H741        H  0.29867530  0.43729936  0.63544818     0.28100
H742        H  0.19791163  0.30846740  0.61625341     0.28100
H743        H  0.22606569  0.36455180  0.67743760     0.18600
H744        H  0.26733683  0.38360470  0.57390113     0.18700
C745        C  0.24936067  0.39888871  0.85329291    -0.07200
C746        C  0.26685271  0.37251448  0.84813642    -0.18300
C747        C  0.26981116  0.34990033  0.87048711     0.10000
C748        C  0.25446492  0.35317134  0.89883618    -0.07100
C749        C  0.23712260  0.37961389  0.90408980    -0.18300
C750        C  0.23389736  0.40207644  0.88159839     0.10100
S751        S  0.29467128  0.31822089  0.86172883    -0.33300
S752        S  0.20790749  0.43297764  0.88980012    -0.33300
H753        H  0.19601057  0.43491725  0.85997810     0.28100
H754        H  0.30685636  0.31566054  0.89140155     0.28100
H755        H  0.27912777  0.36984258  0.82675144     0.18600
H756        H  0.22475447  0.38219701  0.92543713     0.18700
C757        C  0.25038364  0.10299057  0.85097475    -0.07200
C758        C  0.27040392  0.10023829  0.87597180    -0.18300
C759        C  0.27282541  0.12330633  0.89788520     0.10000
C760        C  0.25399623  0.14943240  0.89554366    -0.07100
C761        C  0.23417532  0.15230265  0.87039297    -0.18300
C762        C  0.23190579  0.12934272  0.84834687     0.10100
S763        S  0.30159901  0.11875277  0.92723720    -0.33300
S764        S  0.20388313  0.13445522  0.81834056    -0.33300
H765        H  0.19531604  0.10365382  0.81658729     0.28100
H766        H  0.30899785  0.14982029  0.92937451     0.28100
H767        H  0.28510910  0.08042872  0.87786439     0.18600
H768        H  0.21945792  0.17209965  0.86849839     0.18700
C769        C  0.39610690  0.15033832  0.74840410    -0.07200
C770        C  0.37117055  0.15248684  0.76865614    -0.18300
C771        C  0.34893919  0.12945359  0.77044005     0.10000
C772        C  0.35172042  0.10324461  0.75177757    -0.07100
C773        C  0.37632924  0.10142175  0.73114961    -0.18300
C774        C  0.39779207  0.12502292  0.72854850     0.10100
S775        S  0.31808428  0.13472964  0.79750798    -0.33300
S776        S  0.42496957  0.12271949  0.69758831    -0.33300
H777        H  0.42613576  0.15421310  0.69205573     0.28100
H778        H  0.31617862  0.10396091  0.80604737     0.28100
H779        H  0.36935383  0.17194386  0.78374621     0.18600
H780        H  0.37792621  0.08217227  0.71576627     0.18700
C781        C  0.39917355  0.35459300  0.75143044    -0.07200
C782        C  0.37141372  0.34848379  0.73616296    -0.18300
C783        C  0.34842396  0.37055860  0.73331929     0.10000
C784        C  0.35246629  0.39936638  0.74710128    -0.07100
C785        C  0.38038921  0.40570536  0.76188932    -0.18300
C786        C  0.40356268  0.38382980  0.76432267     0.10100
S787        S  0.31551131  0.36100794  0.71015186    -0.33300
S788        S  0.43737455  0.39461340  0.78538172    -0.33300
H789        H  0.43947484  0.36685304  0.80123225     0.28100
H790        H  0.31303569  0.38994890  0.69664063     0.28100
H791        H  0.36797834  0.32660579  0.72529901     0.18600
H792        H  0.38389524  0.42766408  0.77258814     0.18700
C793        C  0.10268986  0.14916077  0.75221178    -0.07200
C794        C  0.13035408  0.15427059  0.73658070    -0.18300
C795        C  0.15257527  0.13154383  0.73392570     0.10000
C796        C  0.14796305  0.10328069  0.74869161    -0.07100
C797        C  0.12066837  0.09847674  0.76511103    -0.18300
C798        C  0.09838440  0.12119824  0.76749158     0.10100
S799        S  0.18520336  0.13962607  0.70978827    -0.33300
S800        S  0.06652536  0.11403410  0.79266616    -0.33300
H801        H  0.06567614  0.14373732  0.80464551     0.28100
H802        H  0.18622215  0.11044175  0.69665331     0.28100
H803        H  0.13436391  0.17588354  0.72549127     0.18600
H804        H  0.11718362  0.07728459  0.77727946     0.18700
C805        C  0.10359232  0.35230217  0.74894856    -0.07200
C806        C  0.12343204  0.35465103  0.77408229    -0.18300
C807        C  0.14452619  0.37856678  0.77623645     0.10000
C808        C  0.14593302  0.40041251  0.75262962    -0.07100
C809        C  0.12590365  0.39820706  0.72765685    -0.18300
C810        C  0.10521498  0.37403082  0.72530315     0.10100
S811        S  0.16846252  0.38040777  0.80990712    -0.33300
S812        S  0.08284843  0.37096014  0.69080053    -0.33300
H813        H  0.08295712  0.33898424  0.68979999     0.28100
H814        H  0.17162779  0.41223365  0.81031023     0.28100
H815        H  0.12196119  0.33818917  0.79245780     0.18600
H816        H  0.12738368  0.41461919  0.70922025     0.18700
C817        C  0.39662985  0.24999500  0.64991500    -0.07200
C818        C  0.37061197  0.26860968  0.65277460    -0.18300
C819        C  0.34823544  0.26961496  0.62983206     0.10000
C820        C  0.35146300  0.25098836  0.60364073    -0.07100
C821        C  0.37758408  0.23251425  0.60078270    -0.18300
C822        C  0.39989473  0.23150770  0.62368357     0.10100
S823        S  0.31715267  0.29635992  0.63468974    -0.33300
S824        S  0.43107507  0.20494213  0.61869685    -0.33300
H825        H  0.43201546  0.19594667  0.64953440     0.28100
H826        H  0.31540970  0.30453381  0.60365719     0.28100
H827        H  0.36821415  0.28326787  0.67254300     0.18600
H828        H  0.38015586  0.21793998  0.58097517     0.18700
C829        C  0.10061496  0.24770332  0.64502538    -0.07200
C830        C  0.10209284  0.27217368  0.62452927    -0.18300
C831        C  0.12482557  0.27352246  0.60192191     0.10000
C832        C  0.14640954  0.24963563  0.59946242    -0.07100
C833        C  0.14481851  0.22508178  0.61984407    -0.18300
C834        C  0.12177251  0.22353513  0.64209574     0.10100
S835        S  0.12567390  0.30686328  0.57786011    -0.33300
S836        S  0.11946188  0.18930259  0.66457094    -0.33300
H837        H  0.08760304  0.19041863  0.66993431     0.28100
H838        H  0.15758023  0.30706789  0.57282990     0.28100
H839        H  0.08590920  0.29079344  0.62670003     0.18600
H840        H  0.16104624  0.20648355  0.61773524     0.18700
C841        C  0.10573826  0.25109035  0.84930390    -0.07200
C842        C  0.12762303  0.27455548  0.84929715    -0.18300
C843        C  0.14989533  0.27647064  0.87230227     0.10000
C844        C  0.15066012  0.25405757  0.89542010    -0.07100
C845        C  0.12888455  0.23056391  0.89525822    -0.18300
C846        C  0.10670488  0.22861879  0.87231271     0.10100
S847        S  0.17565845  0.30865279  0.87169968    -0.33300
S848        S  0.08112554  0.19627799  0.87301887    -0.33300
H849        H  0.07828683  0.19354118  0.84112940     0.28100
H850        H  0.17820170  0.31140738  0.90362417     0.28100
H851        H  0.12672432  0.29201669  0.83183500     0.18600
H852        H  0.12972506  0.21307337  0.91270339     0.18700
C853        C  0.40164900  0.25077432  0.85490304    -0.07200
C854        C  0.37470793  0.23402383  0.84969872    -0.18300
C855        C  0.35186047  0.23181360  0.87188881     0.10000
C856        C  0.35561147  0.24712033  0.90001561    -0.07100
C857        C  0.38280619  0.26343159  0.90553783    -0.18300
C858        C  0.40569195  0.26573248  0.88326120     0.10100
S859        S  0.31915564  0.20811080  0.86317730    -0.33300
S860        S  0.43847365  0.28936804  0.89203892    -0.33300
H861        H  0.44038934  0.30249545  0.86277848     0.28100
H862        H  0.31686057  0.19580002  0.89275261     0.28100
H863        H  0.37168848  0.22188599  0.82835173     0.18600
H864        H  0.38575167  0.27548926  0.92694134     0.18700
C865        C  0.35717512  0.34768907  0.50261821    -0.07200
C866        C  0.38085391  0.34598296  0.98105247    -0.18300
C867        C  0.40311975  0.36891407  0.97888960     0.10000
C868        C  0.40188323  0.39397241  0.49813751    -0.07100
C869        C  0.37770642  0.39630647  0.51912447    -0.18300
C870        C  0.35588156  0.37326548  0.52205390     0.10100
S871        S  0.43226621  0.36480455  0.94979202    -0.33300
S872        S  0.32829230  0.37705547  0.55245139    -0.33300
H873        H  0.32610431  0.34577128  0.55878243     0.28100
H874        H  0.43501842  0.39601516  0.94339697     0.28100
H875        H  0.38163439  0.32706241  0.96519850     0.18600
H876        H  0.37647640  0.41578178  0.53426348     0.18700
C877        C  0.35014052  0.14476291  0.49971069    -0.07200
C878        C  0.37522038  0.14731752  0.97935851    -0.18300
C879        C  0.39684582  0.12399470  0.97712326     0.10000
C880        C  0.39443170  0.09814128  0.49676193    -0.07100
C881        C  0.36944672  0.09581655  0.51691180    -0.18300
C882        C  0.34731118  0.11882204  0.51863260     0.10100
S883        S  0.42498462  0.12688868  0.94713110    -0.33300
S884        S  0.31684275  0.11424310  0.54627325    -0.33300
H885        H  0.31538918  0.14514045  0.55444713     0.28100
H886        H  0.42603398  0.09552558  0.94082895     0.28100
H887        H  0.37693751  0.16667158  0.96409658     0.18600
H888        H  0.36769636  0.07643612  0.53212443     0.18700
C889        C  0.15129334  0.35372932  0.50010477    -0.07200
C890        C  0.12226563  0.34752378  0.98646643    -0.18300
C891        C  0.09966810  0.36998824  0.98460243     0.10000
C892        C  0.10590366  0.39998384  0.49640462    -0.07100
C893        C  0.13408154  0.40529811  0.51114684    -0.18300
C894        C  0.15605860  0.38221448  0.51440253     0.10100
S895        S  0.06511334  0.35977260  0.96480175    -0.33300
S896        S  0.18803704  0.38964834  0.53953581    -0.33300
H897        H  0.18760836  0.36052987  0.55292714     0.28100
H898        H  0.06360609  0.38728285  0.94842087     0.28100
H899        H  0.11780895  0.32556323  0.97613159     0.18600
H900        H  0.13847472  0.42715458  0.52153179     0.18700
C901        C  0.14679982  0.14873767  0.49915670    -0.07200
C902        C  0.12128210  0.15284123  0.51838918    -0.18300
C903        C  0.09890188  0.13015047  0.52172383     0.10000
C904        C  0.10131694  0.10296170  0.50463605    -0.07100
C905        C  0.12686488  0.09897922  0.98435479    -0.18300
C906        C  0.14932917  0.12154526  0.98141466     0.10100
S907        S  0.06911247  0.13659329  0.54957483    -0.33300
S908        S  0.17928554  0.11524498  0.95358435    -0.33300
H909        H  0.18046637  0.14563417  0.94358360     0.28100
H910        H  0.06640975  0.10598508  0.55853466     0.28100
H911        H  0.11935390  0.17344173  0.53184537     0.18600
H912        H  0.12849645  0.07881991  0.97019710     0.18700
C913        C  0.39786727  0.00013587  0.89759144    -0.07200
C914        C  0.37039891  0.48401347  0.90272539    -0.18300
C915        C  0.34766696  0.48202189  0.88024424     0.10000
C916        C  0.35199614  0.99712304  0.85193177    -0.07100
C917        C  0.37946296  0.01302364  0.84675378    -0.18300
C918        C  0.40215594  0.01506212  0.86922906     0.10100
S919        S  0.31454300  0.45875832  0.88874407    -0.33300
S920        S  0.43510178  0.03845604  0.86057965    -0.33300
H921        H  0.43674855  0.05167701  0.88980199     0.28100
H922        H  0.31252455  0.44612811  0.85927721     0.28100
H923        H  0.36698096  0.47205096  0.92411630     0.18600
H924        H  0.38283111  0.02502310  0.82537454     0.18700
C925        C  0.10290212  0.99935479  0.89940776    -0.07200
C926        C  0.12830864  0.01878581  0.90250078    -0.18300
C927        C  0.15085142  0.02048012  0.87979955     0.10000
C928        C  0.14815575  0.00207738  0.85341962    -0.07100
C929        C  0.12289832  0.48253042  0.85046760    -0.18300
C930        C  0.10065114  0.48049242  0.87337201     0.10100
S931        S  0.18165565  0.04743971  0.88540408    -0.33300
S932        S  0.07124691  0.45186581  0.86894757    -0.33300
H933        H  0.07003022  0.44404899  0.90011568     0.28100
H934        H  0.18418242  0.05573955  0.85446898     0.28100
H935        H  0.13016458  0.03342024  0.92234688     0.18600
H936        H  0.12114437  0.46776133  0.83071612     0.18700
C937        C  0.14618248  0.00159967  0.64880585    -0.07200
C938        C  0.14579884  0.47804550  0.62726160    -0.18300
C939        C  0.12254091  0.47621472  0.60536550     0.10000
C940        C  0.09974103  0.99900604  0.60425673    -0.07100
C941        C  0.09990150  0.02238294  0.62600388    -0.18300
C942        C  0.12313263  0.02418599  0.64798608     0.10100
S943        S  0.12233721  0.44335360  0.58081763    -0.33300
S944        S  0.12306409  0.05670970  0.67312464    -0.33300
H945        H  0.15520540  0.05889098  0.67604489     0.28100
H946        H  0.09046508  0.44241495  0.57582208     0.28100
H947        H  0.16316551  0.46037884  0.62816792     0.18600
H948        H  0.08247312  0.03998302  0.62512243     0.18700
C949        C  0.39575459  0.99497501  0.60112374    -0.07200
C950        C  0.36922136  0.01247972  0.59623204    -0.18300
C951        C  0.34651705  0.01501310  0.61864968     0.10000
C952        C  0.34991384  0.99901341  0.64649385    -0.07100
C953        C  0.37625745  0.48120019  0.65122412    -0.18300
C954        C  0.39897793  0.47870753  0.62882939     0.10100
S955        S  0.31494685  0.04052113  0.61092757    -0.33300
S956        S  0.43057957  0.45328235  0.63654621    -0.33300
H957        H  0.43278825  0.44240631  0.60639853     0.28100
H958        H  0.31320702  0.05198963  0.64088300     0.28100
H959        H  0.36673791  0.02536635  0.57525505     0.18600
H960        H  0.37875491  0.46839530  0.67224888     0.18700
C961        C  0.00056095  0.10197961  0.89760911    -0.07200
C962        C  0.99221221  0.13182249  0.90567557    -0.18300
C963        C  0.98925920  0.15493537  0.88384975     0.10000
C964        C  0.99625603  0.14890314  0.85278879    -0.07100
C965        C  0.50408360  0.11895979  0.84464815    -0.18300
C966        C  0.50736488  0.09592470  0.86648179     0.10100
S967        S  0.97437660  0.19080789  0.89723655    -0.33300
S968        S  0.52287815  0.06034067  0.85300171    -0.33300
H969        H  0.54410900  0.05762086  0.87713778     0.28100
H970        H  0.95394793  0.19431471  0.87254346     0.28100
H971        H  0.98715082  0.13724225  0.92925556     0.18600
H972        H  0.50888058  0.11352735  0.82104986     0.18700
C973        C  0.00006095  0.39786567  0.89833777    -0.07200
C974        C  0.50933811  0.36820051  0.90610590    -0.18300
C975        C  0.51343478  0.34552253  0.88396250     0.10000
C976        C  0.00574973  0.35181625  0.85315230    -0.07100
C977        C  0.99609300  0.38131195  0.84547641    -0.18300
C978        C  0.99251328  0.40399497  0.86748408     0.10100
S979        S  0.53124155  0.31002892  0.89528771    -0.33300
S980        S  0.97595145  0.43932104  0.85460297    -0.33300
H981        H  0.95458388  0.44072983  0.87874384     0.28100
H982        H  0.52892325  0.31415161  0.92704352     0.28100
H983        H  0.51401824  0.36284798  0.92963961     0.18600
H984        H  0.99040262  0.38672046  0.82207992     0.18700
C985        C  0.99497873  0.35358835  0.64891932    -0.07200
C986        C  0.00950274  0.38145802  0.65497109    -0.18300
C987        C  0.01252599  0.40375612  0.63245176     0.10000
C988        C  0.99940989  0.39890930  0.60323845    -0.07100
C989        C  0.48397441  0.37146146  0.59746882    -0.18300
C990        C  0.48115209  0.34908108  0.62000506     0.10100
S991        S  0.03508423  0.43684209  0.64215655    -0.33300
S992        S  0.45780099  0.31639162  0.61103224    -0.33300
H993        H  0.44391970  0.31495248  0.64006204     0.28100
H994        H  0.04940165  0.43908411  0.61346105     0.28100
H995        H  0.01974319  0.38551792  0.67713426     0.18600
H996        H  0.47305245  0.36780488  0.57551665     0.18700
C997        C  0.99894916  0.14930636  0.64718863    -0.07200
C998        C  0.49335363  0.11902486  0.65602755    -0.18300
C999        C  0.49075552  0.09545718  0.63469210     0.10000
C1000       C  0.99512824  0.10158870  0.60316172    -0.07100
C1001       C  0.00050537  0.13186863  0.59430097    -0.18300
C1002       C  0.00297214  0.15544497  0.61558958     0.10100
S1003       S  0.48027571  0.05865852  0.64963133    -0.33300
S1004       S  0.01280098  0.19227423  0.60032917    -0.33300
H1005       H  0.03725080  0.19680298  0.62089294     0.28100
H1006       H  0.45646042  0.05426894  0.62828531     0.28100
H1007       H  0.49016696  0.11350832  0.67992924     0.18600
H1008       H  0.00375734  0.13737016  0.57040595     0.18700
O1009       O  0.99827763  0.54983550  0.08713120    -0.81200
O1010       O  0.99954783  0.55044259  0.41375484    -0.82700
O1011       O  0.04908934  0.58739669  0.00339797    -0.79800
O1012       O  0.44727102  0.58462308  0.99771447    -0.78100
O1013       O  0.41062133  0.54721240  0.99958834    -0.79900
O1014       O  0.08672234  0.55096336  0.00297688    -0.80900
O1015       O  0.99996443  0.58723068  0.45041959    -0.82200
O1016       O  0.99632050  0.58662984  0.05056397    -0.82500
Eu1017     Eu  0.99870812  0.56162866  0.00040194     2.39200
O1018       O  0.46803460  0.53008073  0.46942128    -0.90000
O1019       O  0.03008725  0.53115465  0.03154371    -0.93600
C1020       C  0.99671753  0.57787702  0.07874842     1.01100
C1021       C  0.00012746  0.57854582  0.42219449     1.00900
C1022       C  0.07754044  0.57885695  0.00383319     1.00900
C1023       C  0.41911194  0.57528584  0.99797970     0.98700
H1024       H  0.04377920  0.54464293  0.45744322     0.28500
O1025       O  0.03099763  0.53168638  0.46993521    -1.02400
H1026       H  0.45403050  0.54256667  0.04372917     0.28500
O1027       O  0.46734255  0.53026584  0.03110034    -1.04900
O1028       O  0.00088498  0.95036829  0.41374307    -0.82100
O1029       O  0.99814865  0.95070493  0.08773939    -0.81700
O1030       O  0.08762639  0.50169166  0.45121767    -0.80100
O1031       O  0.41246037  0.49867681  0.44960663    -0.83500
O1032       O  0.41187086  0.49628472  0.04987347    -0.81300
O1033       O  0.08637123  0.49966673  0.05194604    -0.80000
O1034       O  0.05264390  0.91448825  0.99935517    -0.81500
O1035       O  0.45297520  0.91079429  0.99911480    -0.83400
O1036       O  0.08946088  0.95144916  0.99874936    -0.80100
O1037       O  0.41467029  0.94654695  0.99924177    -0.82800
O1038       O  0.05068388  0.49980707  0.41403216    -0.78600
O1039       O  0.04852825  0.50061915  0.08838160    -0.78600
O1040       O  0.44870977  0.49751044  0.08713359    -0.78200
O1041       O  0.45020299  0.50019607  0.41328656    -0.81700
O1042       O  0.00118474  0.91325711  0.45011254    -0.81200
O1043       O  0.00082648  0.91369747  0.05121072    -0.79500
Eu1044     Eu  0.00038507  0.50032641  0.43879727     2.39800
Eu1045     Eu  0.99897797  0.49995367  0.06209713     2.39600
Eu1046     Eu  0.06234042  0.50070129  0.00117316     2.38400
Eu1047     Eu  0.43740021  0.49810516  0.00000903     2.39900
Eu1048     Eu  0.00157873  0.93816859  0.00060502     2.39800
O1049       O  0.46898157  0.96800708  0.03119360    -0.93900
O1050       O  0.03223250  0.96984426  0.46959883    -0.92800
C1051       C  0.00061396  0.92222133  0.42201936     1.01300
C1052       C  0.99951295  0.92270668  0.07927387     1.00000
C1053       C  0.07887811  0.50031397  0.42307788     0.99400
C1054       C  0.42176803  0.49985694  0.42163353     1.01400
C1055       C  0.42054901  0.49611685  0.07805440     1.00300
C1056       C  0.07688353  0.49985552  0.07989419     0.99200
C1057       C  0.08090061  0.92329944  0.99818070     0.99200
C1058       C  0.42451573  0.91878810  0.99872849     1.01800
H1059       H  0.04447891  0.95668599  0.04507392     0.29200
O1060       O  0.03168475  0.96926685  0.03223387    -1.06100
H1061       H  0.45764446  0.95551259  0.45616893     0.31300
O1062       O  0.47003231  0.96829127  0.46921075    -1.08600
O1063       O  0.99844249  0.70168565  0.16295125    -0.81200
O1064       O  0.00068138  0.70153115  0.33745498    -0.82700
O1065       O  0.04989117  0.66424085  0.25001768    -0.79800
O1066       O  0.44850993  0.66514299  0.24837048    -0.78100
O1067       O  0.41174151  0.70232235  0.25105340    -0.79900
O1068       O  0.08755086  0.70058190  0.25021601    -0.80900
O1069       O  0.99678476  0.66499373  0.30070562    -0.82200
O1070       O  0.99995293  0.66474389  0.19941282    -0.82500
Eu1071     Eu  0.99955950  0.68946248  0.24989397     2.39200
O1072       O  0.46956121  0.72063191  0.28158762    -0.90000
O1073       O  0.03072785  0.72007565  0.21837245    -0.93600
C1074       C  0.99935483  0.67357114  0.17123886     1.01100
C1075       C  0.99771451  0.67361843  0.32896470     1.00900
C1076       C  0.07830809  0.67270524  0.25074039     1.00900
C1077       C  0.42026143  0.67422837  0.24916793     0.98700
H1078       H  0.04506625  0.70696971  0.29276720     0.28500
O1079       O  0.03237789  0.71973201  0.28003259    -1.02400
H1080       H  0.45532612  0.70852126  0.20694495     0.28500
O1081       O  0.46842312  0.72097975  0.21960772    -1.04900
O1082       O  0.00458326  0.80056624  0.33675081    -0.82100
O1083       O  0.99763946  0.80157181  0.16339481    -0.81700
O1084       O  0.08982784  0.75247428  0.29766370    -0.80100
O1085       O  0.41496142  0.75137365  0.30233725    -0.83500
O1086       O  0.41164817  0.75207573  0.20177228    -0.81300
O1087       O  0.08698285  0.74802117  0.19725349    -0.80000
O1088       O  0.05186007  0.83730076  0.24890476    -0.81500
O1089       O  0.45154671  0.83894179  0.25178669    -0.83400
O1090       O  0.08910288  0.80042145  0.24906628    -0.80100
O1091       O  0.41390461  0.80266282  0.25217934    -0.82800
O1092       O  0.05328076  0.75088198  0.33532744    -0.78600
O1093       O  0.04886615  0.75061367  0.16120879    -0.78600
O1094       O  0.44863069  0.75177622  0.16455795    -0.78200
O1095       O  0.45318529  0.75138975  0.33822561    -0.81700
O1096       O  0.00493858  0.83752715  0.30025155    -0.81200
O1097       O  0.99749487  0.83805995  0.20051538    -0.79500
Eu1098     Eu  0.00233486  0.75096281  0.31150160     2.39800
Eu1099     Eu  0.99947062  0.75154782  0.18821194     2.39600
Eu1100     Eu  0.06316288  0.75070595  0.24831554     2.38400
Eu1101     Eu  0.43812270  0.75200261  0.25134796     2.39900
Eu1102     Eu  0.00131664  0.81279461  0.25013578     2.39800
O1103       O  0.46904285  0.78251103  0.21975733    -0.93900
O1104       O  0.03297645  0.78160273  0.28003411    -0.92800
C1105       C  0.00566621  0.82862130  0.32835256     1.01300
C1106       C  0.99646517  0.82948763  0.17236425     1.00000
C1107       C  0.08135444  0.75177650  0.32589000     0.99400
C1108       C  0.42471854  0.75149217  0.33018043     1.01400
C1109       C  0.42043779  0.75150808  0.17359915     1.00300
C1110       C  0.07729412  0.74872881  0.16935864     0.99200
C1111       C  0.08010061  0.82838370  0.24905454     0.99200
C1112       C  0.42311628  0.83061540  0.25231196     1.01800
H1113       H  0.04449709  0.79494705  0.20484973     0.29200
O1114       O  0.03195440  0.78235359  0.21795118    -1.06100
H1115       H  0.45818490  0.79529366  0.29509952     0.31300
O1116       O  0.47036411  0.78246086  0.28188772    -1.08600
O1117       O  0.33595845  0.00039900  0.19887197    -0.81200
O1118       O  0.16173927  0.00225399  0.20064345    -0.82700
O1119       O  0.24849998  0.94917806  0.16373643    -0.79800
O1120       O  0.24934754  0.54921743  0.16232704    -0.78100
O1121       O  0.25091025  0.58638280  0.19883845    -0.79900
O1122       O  0.24907080  0.91259378  0.20076186    -0.80900
O1123       O  0.19852010  0.99945063  0.16328361    -0.82200
O1124       O  0.29830432  0.99857181  0.16239746    -0.82500
Eu1125     Eu  0.24869844  0.99958076  0.18831331     2.39200
O1126       O  0.21806111  0.53130768  0.21892687    -0.90000
O1127       O  0.28026608  0.96935403  0.21939802    -0.93600
C1128       C  0.32663918  0.99953938  0.17087004     1.01100
C1129       C  0.17043357  0.00116023  0.17247731     1.00900
C1130       C  0.24909076  0.92114168  0.17249393     1.00900
C1131       C  0.25068812  0.57733063  0.17075847     0.98700
H1132       H  0.20444023  0.95650484  0.20729350     0.28500
O1133       O  0.21748552  0.96921942  0.21976645    -1.02400
H1134       H  0.29337277  0.54353118  0.20545510     0.28500
O1135       O  0.28055683  0.53097922  0.21833927    -1.04900
O1136       O  0.16265567  0.00186617  0.30145893    -0.82100
O1137       O  0.33701856  0.99902061  0.29989955    -0.81700
O1138       O  0.19816202  0.91490333  0.25285330    -0.80100
O1139       O  0.19984798  0.58737315  0.24928894    -0.83500
O1140       O  0.29965781  0.58757893  0.25100215    -0.81300
O1141       O  0.30002669  0.91420728  0.24919511    -0.80000
O1142       O  0.24917036  0.95088067  0.33783016    -0.81500
O1143       O  0.25056905  0.55086987  0.33679541    -0.83400
O1144       O  0.24977698  0.91384602  0.30117374    -0.80100
O1145       O  0.24995809  0.58724843  0.29938226    -0.82800
O1146       O  0.16092644  0.95179693  0.25132672    -0.78600
O1147       O  0.33713279  0.95108276  0.24813648    -0.78600
O1148       O  0.33723247  0.55119053  0.25039770    -0.78200
O1149       O  0.16219813  0.55113680  0.24978557    -0.81700
O1150       O  0.20030122  0.00087048  0.33796644    -0.81200
O1151       O  0.29999569  0.99968341  0.33702385    -0.79500
Eu1152     Eu  0.18708487  0.00106128  0.25074984     2.39800
Eu1153     Eu  0.31184958  0.00075898  0.24964347     2.39600
Eu1154     Eu  0.24919078  0.93865412  0.25068040     2.38400
Eu1155     Eu  0.24982276  0.56196406  0.24950267     2.39900
Eu1156     Eu  0.24991945  0.00067907  0.31200550     2.39800
O1157       O  0.28108874  0.53158662  0.28091573    -0.93900
O1158       O  0.21818493  0.96985321  0.28162266    -0.92800
C1159       C  0.17197318  0.00176868  0.32948347     1.01300
C1160       C  0.32818539  0.99863770  0.32807879     1.00000
C1161       C  0.16992133  0.92389114  0.25259466     0.99400
C1162       C  0.17145372  0.57901413  0.24904421     1.01400
C1163       C  0.32802210  0.57917081  0.25123033     1.00300
C1164       C  0.32831764  0.92306692  0.24805567     0.99200
C1165       C  0.24926986  0.92276978  0.32930115     0.99200
C1166       C  0.25006555  0.57877224  0.32759565     1.01800
H1167       H  0.29370824  0.95691506  0.29357989     0.29200
O1168       O  0.28087534  0.96969737  0.28095531    -1.06100
H1169       H  0.20604506  0.54471542  0.29398094     0.31300
O1170       O  0.21865426  0.53182854  0.28126482    -1.08600
O1171       O  0.19900958  0.66352754  0.49838017    -0.81200
O1172       O  0.20330356  0.83733545  0.49978879    -0.82700
O1173       O  0.16179039  0.75084446  0.04749903    -0.79800
O1174       O  0.16454906  0.75216911  0.44737937    -0.78100
O1175       O  0.20242428  0.75428167  0.41102768    -0.79900
O1176       O  0.19841938  0.74807032  0.08504752    -0.80900
O1177       O  0.16516349  0.80151725  0.49898796    -0.82200
O1178       O  0.16224822  0.70071137  0.49849979    -0.82500
Eu1179     Eu  0.18853407  0.75053501  0.49809606     2.39200
O1180       O  0.22114646  0.78150493  0.46847849    -0.90000
O1181       O  0.21843247  0.71859999  0.02942509    -0.93600
C1182       C  0.17083110  0.67255918  0.49844657     1.01100
C1183       C  0.17478283  0.82932599  0.49980503     1.00900
C1184       C  0.17033578  0.74966652  0.07571598     1.00900
C1185       C  0.17401250  0.75394757  0.41949509     0.94300
H1186       H  0.20698502  0.79275256  0.04257920     0.28500
O1187       O  0.21995584  0.78007416  0.02992818    -1.02400
H1188       H  0.20657637  0.70720332  0.45359702     0.28500
O1189       O  0.21936631  0.71945192  0.46680375    -1.04900
O1190       O  0.30443547  0.83405667  0.50277987    -0.82100
O1191       O  0.29861371  0.66126235  0.49889230    -0.81700
O1192       O  0.24769713  0.79816439  0.08762752    -0.80100
O1193       O  0.25380145  0.80107468  0.41328138    -0.83500
O1194       O  0.25214720  0.70125906  0.41083117    -0.81300
O1195       O  0.24854865  0.69811034  0.08589315    -0.80000
O1196       O  0.33734583  0.74849322  0.05148663    -0.81500
O1197       O  0.33972624  0.74672586  0.45136920    -0.83400
O1198       O  0.29934415  0.74972224  0.08763629    -0.80100
O1199       O  0.30316752  0.74945193  0.41386084    -0.82800
O1200       O  0.24969536  0.83525045  0.05117776    -0.78600
O1201       O  0.24836047  0.66195786  0.04832317    -0.78600
O1202       O  0.25157945  0.66409343  0.44748291    -0.78200
O1203       O  0.25409236  0.83723946  0.45080609    -0.81700
O1204       O  0.34073737  0.79640731  0.50085856    -0.81200
O1205       O  0.33699358  0.69687430  0.49985113    -0.79500
Eu1206     Eu  0.25285458  0.81095218  0.50050047     2.39800
Eu1207     Eu  0.24947725  0.68790271  0.49836063     2.39600
Eu1208     Eu  0.24958148  0.74849213  0.06145650     2.38400
Eu1209     Eu  0.25208714  0.75061520  0.43737817     2.39900
Eu1210     Eu  0.31335479  0.74766476  0.50071499     2.39800
O1211       O  0.28185367  0.71850641  0.46848581    -0.93900
O1212       O  0.28245672  0.77918833  0.03186524    -0.92800
C1213       C  0.33254937  0.82455541  0.50225352     1.01300
C1214       C  0.32709892  0.66919151  0.49955464     1.00000
C1215       C  0.24767778  0.82633953  0.07926381     0.99400
C1216       C  0.25441596  0.82894624  0.42248451     1.01400
C1217       C  0.25244519  0.67315830  0.41942350     1.00300
C1218       C  0.24806872  0.67022357  0.07663363     0.99200
C1219       C  0.32780772  0.74983449  0.07937997     0.99200
C1220       C  0.33123923  0.74760212  0.42316115     1.01800
H1221       H  0.29335541  0.70417878  0.04379355     0.29200
O1222       O  0.28100760  0.71720071  0.03094629    -1.06100
H1223       H  0.29724062  0.79251398  0.45712489     0.31300
O1224       O  0.28382136  0.77997049  0.46940011    -1.08600
C1225       C  0.25153510  0.60079846  0.14637002    -0.07200
C1226       C  0.23381139  0.59621976  0.11991464    -0.18300
C1227       C  0.23158874  0.61856688  0.09719325     0.10000
C1228       C  0.24813437  0.64610675  0.10035169    -0.07100
C1229       C  0.26629166  0.65044685  0.12654268    -0.18300
C1230       C  0.26853384  0.62810387  0.14923213     0.10100
S1231       S  0.20576887  0.61115586  0.06579785    -0.33300
S1232       S  0.29474901  0.63532064  0.18035002    -0.33300
H1233       H  0.30542462  0.60517739  0.18230626     0.28100
H1234       H  0.19455113  0.64110674  0.06393744     0.28100
H1235       H  0.22053569  0.57550768  0.11744653     0.18600
H1236       H  0.27964695  0.67111975  0.12895924     0.18700
C1237       C  0.24922310  0.89702729  0.14849074    -0.07200
C1238       C  0.23562334  0.86872501  0.15499605    -0.18300
C1239       C  0.23371821  0.84562896  0.13293417     0.10000
C1240       C  0.24612136  0.85042319  0.10332609    -0.07100
C1241       C  0.25885583  0.87905110  0.09668163    -0.18300
C1242       C  0.26151600  0.90177553  0.11889130     0.10100
S1243       S  0.21365111  0.81143589  0.14386857    -0.33300
S1244       S  0.28307206  0.93521423  0.10833750    -0.33300
H1245       H  0.29925113  0.93678070  0.13614883     0.28100
H1246       H  0.19786764  0.80855062  0.11597487     0.28100
H1247       H  0.22562279  0.86473452  0.17732027     0.18600
H1248       H  0.26809096  0.88350688  0.07417650     0.18700
C1249       C  0.24968647  0.89892051  0.35336647    -0.07200
C1250       C  0.26746499  0.87271457  0.34837323    -0.18300
C1251       C  0.27027999  0.85005874  0.37068493     0.10000
C1252       C  0.25461789  0.85319185  0.39887686    -0.07100
C1253       C  0.23693269  0.87945052  0.40394843    -0.18300
C1254       C  0.23373089  0.90188344  0.38142005     0.10100
S1255       S  0.29526046  0.81844625  0.36203283    -0.33300
S1256       S  0.20706983  0.93235508  0.38915768    -0.33300
H1257       H  0.19610544  0.93466155  0.35901543     0.28100
H1258       H  0.30721754  0.81582041  0.39178770     0.28100
H1259       H  0.28001356  0.87018293  0.32712773     0.18600
H1260       H  0.22424905  0.88186307  0.42513343     0.18700
C1261       C  0.24980470  0.60287117  0.35108408    -0.07200
C1262       C  0.27009955  0.60044123  0.37587394    -0.18300
C1263       C  0.27243556  0.62359597  0.39768079     0.10000
C1264       C  0.25328764  0.64950051  0.39540933    -0.07100
C1265       C  0.23311145  0.65201463  0.37049461    -0.18300
C1266       C  0.23086705  0.62890558  0.34859692     0.10100
S1267       S  0.30148535  0.61939658  0.42682135    -0.33300
S1268       S  0.20226992  0.63332570  0.31901384    -0.33300
H1269       H  0.19441874  0.60232803  0.31739347     0.28100
H1270       H  0.30832552  0.65055755  0.42924474     0.28100
H1271       H  0.28508386  0.58082762  0.37767099     0.18600
H1272       H  0.21810983  0.67161132  0.36870309     0.18700
C1273       C  0.39591043  0.65062964  0.24818219    -0.07200
C1274       C  0.37103895  0.65278514  0.26849431    -0.18300
C1275       C  0.34882296  0.62975808  0.27034816     0.10000
C1276       C  0.35153946  0.60355571  0.25166127    -0.07100
C1277       C  0.37603506  0.60177919  0.23088627    -0.18300
C1278       C  0.39750084  0.62537534  0.22824710     0.10100
S1279       S  0.31813229  0.63503533  0.29759667    -0.33300
S1280       S  0.42450745  0.62322110  0.19712087    -0.33300
H1281       H  0.42530045  0.65472452  0.19155674     0.28100
H1282       H  0.31609467  0.60424436  0.30600774     0.28100
H1283       H  0.36928501  0.67222990  0.28360817     0.18600
H1284       H  0.37754532  0.58256886  0.21544492     0.18700
C1285       C  0.39916978  0.85466872  0.25199288    -0.07200
C1286       C  0.37166168  0.84881227  0.23620846    -0.18300
C1287       C  0.34874961  0.87093935  0.23336410     0.10000
C1288       C  0.35265374  0.89954882  0.24758857    -0.07100
C1289       C  0.38030797  0.90562527  0.26295511    -0.18300
C1290       C  0.40337329  0.88365680  0.26547006     0.10100
S1291       S  0.31609696  0.86169722  0.20970919    -0.33300
S1292       S  0.43677175  0.89396440  0.28737356    -0.33300
H1293       H  0.43888846  0.86576438  0.30241720     0.28100
H1294       H  0.31373345  0.89081618  0.19657489     0.28100
H1295       H  0.36838179  0.82710703  0.22495180     0.18600
H1296       H  0.38364816  0.92741810  0.27404366     0.18700
C1297       C  0.10221113  0.64882131  0.25176246    -0.07200
C1298       C  0.13023818  0.65424484  0.23687691    -0.18300
C1299       C  0.15256623  0.63159876  0.23431222     0.10000
C1300       C  0.14774094  0.60308479  0.24853152    -0.07100
C1301       C  0.11999918  0.59788882  0.26406852    -0.18300
C1302       C  0.09753193  0.62046069  0.26621678     0.10100
S1303       S  0.18554155  0.64009344  0.21079191    -0.33300
S1304       S  0.06478307  0.61240728  0.28994502    -0.33300
H1305       H  0.06384801  0.64155540  0.30323291     0.28100
H1306       H  0.18691303  0.61107103  0.19732438     0.28100
H1307       H  0.13444300  0.67603359  0.22619533     0.18600
H1308       H  0.11621778  0.57644080  0.27568290     0.18700
C1309       C  0.10373665  0.85221217  0.24918411    -0.07200
C1310       C  0.12406490  0.85399038  0.27398923    -0.18300
C1311       C  0.14522600  0.87784999  0.27629723     0.10000
C1312       C  0.14617254  0.90025457  0.25318565    -0.07100
C1313       C  0.12564995  0.89860536  0.22856853    -0.18300
C1314       C  0.10495907  0.87446021  0.22600859     0.10100
S1315       S  0.16980282  0.87887428  0.30954974    -0.33300
S1316       S  0.08215919  0.87209167  0.19172514    -0.33300
H1317       H  0.08178318  0.84013712  0.19025782     0.28100
H1318       H  0.17339198  0.91063925  0.31042387     0.28100
H1319       H  0.12293869  0.83711351  0.29200212     0.18600
H1320       H  0.12677916  0.91542313  0.21048021     0.18700
C1321       C  0.39657594  0.75031719  0.14975441    -0.07200
C1322       C  0.37038922  0.76867019  0.15282008    -0.18300
C1323       C  0.34797498  0.76965588  0.12992692     0.10000
C1324       C  0.35134968  0.75127189  0.10359175    -0.07100
C1325       C  0.37766173  0.73311678  0.10049526    -0.18300
C1326       C  0.40000599  0.73212601  0.12333689     0.10100
S1327       S  0.31665577  0.79608184  0.13501156    -0.33300
S1328       S  0.43140455  0.70588019  0.11805607    -0.33300
H1329       H  0.43198905  0.69622120  0.14870148     0.28100
H1330       H  0.31509648  0.80468022  0.10408678     0.28100
H1331       H  0.36787134  0.78313000  0.17272051     0.18600
H1332       H  0.38035581  0.71874724  0.08055224     0.18700
C1333       C  0.10048553  0.74789901  0.14484922    -0.07200
C1334       C  0.10185717  0.77237046  0.12433038    -0.18300
C1335       C  0.12461961  0.77380883  0.10175133     0.10000
C1336       C  0.14628752  0.75000017  0.09932477    -0.07100
C1337       C  0.14486231  0.72551672  0.11978240    -0.18300
C1338       C  0.12183913  0.72388711  0.14202682     0.10100
S1339       S  0.12550033  0.80716790  0.07773159    -0.33300
S1340       S  0.11985646  0.68974086  0.16466187    -0.33300
H1341       H  0.08791966  0.69043297  0.16962079     0.28100
H1342       H  0.15752780  0.80772281  0.07350234     0.28100
H1343       H  0.08559073  0.79092283  0.12647789     0.18600
H1344       H  0.16121671  0.70701994  0.11773911     0.18700
C1345       C  0.10555295  0.75163802  0.34927072    -0.07200
C1346       C  0.12736913  0.77516040  0.34941339    -0.18300
C1347       C  0.14958597  0.77704523  0.37248669     0.10000
C1348       C  0.15037965  0.75453623  0.39551748    -0.07100
C1349       C  0.12859880  0.73104086  0.39525499    -0.18300
C1350       C  0.10646150  0.72914302  0.37225502     0.10100
S1351       S  0.17527123  0.80928855  0.37204564    -0.33300
S1352       S  0.08081519  0.69684959  0.37286896    -0.33300
H1353       H  0.07813154  0.69406731  0.34096670     0.28100
H1354       H  0.17803835  0.81176606  0.40397300     0.28100
H1355       H  0.12647398  0.79266936  0.33200301     0.18600
H1356       H  0.12941099  0.71350387  0.41265317     0.18700
C1357       C  0.40137770  0.75101332  0.35450457    -0.07200
C1358       C  0.37479996  0.73360596  0.34963323    -0.18300
C1359       C  0.35204300  0.73129721  0.37191906     0.10000
C1360       C  0.35554831  0.74711399  0.39978860    -0.07100
C1361       C  0.38235471  0.76415289  0.40493628    -0.18300
C1362       C  0.40509904  0.76662411  0.38253264     0.10100
S1363       S  0.31979327  0.70681889  0.36372507    -0.33300
S1364       S  0.43720430  0.79138815  0.39061855    -0.33300
H1365       H  0.43905599  0.80351412  0.36091884     0.28100
H1366       H  0.31765242  0.69516174  0.39357122     0.28100
H1367       H  0.37202069  0.72104950  0.32849835     0.18600
H1368       H  0.38504897  0.77666158  0.42610845     0.18700
C1369       C  0.35701920  0.84773114  0.00267314    -0.07200
C1370       C  0.38182458  0.84488999  0.48211978    -0.18300
C1371       C  0.40413543  0.86774013  0.47956857     0.10000
C1372       C  0.40143300  0.89430277  0.99868705    -0.07100
C1373       C  0.37801686  0.89564804  0.02060603    -0.18300
C1374       C  0.35641653  0.87234247  0.02334707     0.10100
S1375       S  0.43395525  0.86247671  0.45135208    -0.33300
S1376       S  0.33013716  0.87436551  0.05507536    -0.33300
H1377       H  0.32743192  0.84277488  0.05930016     0.28100
H1378       H  0.43670263  0.89339659  0.44365305     0.28100
H1379       H  0.38314577  0.82526109  0.46720193     0.18600
H1380       H  0.37730198  0.91445884  0.03659877     0.18700
C1381       C  0.35046689  0.64517349  0.99980224    -0.07200
C1382       C  0.37472907  0.64671881  0.47916917    -0.18300
C1383       C  0.39637799  0.62341915  0.47698298     0.10000
C1384       C  0.39481237  0.59861276  0.99683039    -0.07100
C1385       C  0.36984320  0.59627375  0.01699777    -0.18300
C1386       C  0.34767947  0.61923640  0.01871783     0.10100
S1387       S  0.42466778  0.62637062  0.44713518    -0.33300
S1388       S  0.31722442  0.61462287  0.04636321    -0.33300
H1389       H  0.31601258  0.64547850  0.05474421     0.28100
H1390       H  0.42559149  0.59503245  0.44068715     0.28100
H1391       H  0.37644275  0.66604963  0.46387889     0.18600
H1392       H  0.36810647  0.57689326  0.03221035     0.18700
C1393       C  0.15062865  0.85315047  0.00063624    -0.07200
C1394       C  0.12350297  0.84859380  0.48484596    -0.18300
C1395       C  0.10094870  0.87108960  0.48294417     0.10000
C1396       C  0.10511223  0.89931366  0.99695714    -0.07100
C1397       C  0.13385561  0.90511336  0.01036761    -0.18300
C1398       C  0.15588409  0.88211835  0.01373197     0.10100
S1399       S  0.06727195  0.86163751  0.46137193    -0.33300
S1400       S  0.18858280  0.89037840  0.03765250    -0.33300
H1401       H  0.18835289  0.86179923  0.05218442     0.28100
H1402       H  0.06588953  0.88993647  0.44640828     0.28100
H1403       H  0.11948893  0.82698793  0.47361204     0.18600
H1404       H  0.13869974  0.92734001  0.01972470     0.18700
C1405       C  0.14706707  0.64845917  0.99896813    -0.07200
C1406       C  0.12225955  0.65181025  0.01922150    -0.18300
C1407       C  0.09990858  0.62906318  0.02231004     0.10000
C1408       C  0.10167632  0.60261264  0.00402372    -0.07100
C1409       C  0.12700528  0.59881031  0.48565046    -0.18300
C1410       C  0.14948809  0.62132215  0.48252097     0.10100
S1411       S  0.07098388  0.63443842  0.05128379    -0.33300
S1412       S  0.18024052  0.61399221  0.45580674    -0.33300
H1413       H  0.18189074  0.64400682  0.44478872     0.28100
H1414       H  0.06797650  0.60346969  0.05875562     0.28100
H1415       H  0.12087717  0.67184166  0.03358252     0.18600
H1416       H  0.12909236  0.57819440  0.47223613     0.18700
C1417       C  0.39802109  0.50019060  0.39746620    -0.07200
C1418       C  0.37098417  0.98350675  0.40217762    -0.18300
C1419       C  0.34825746  0.98165678  0.37969616     0.10000
C1420       C  0.35215396  0.49741518  0.35187132    -0.07100
C1421       C  0.37928419  0.51395612  0.34701002    -0.18300
C1422       C  0.40199752  0.51584658  0.36946824     0.10100
S1423       S  0.31561746  0.95751704  0.38755718    -0.33300
S1424       S  0.43458204  0.53989952  0.36129605    -0.33300
H1425       H  0.43617967  0.55241825  0.39083083     0.28100
H1426       H  0.31364549  0.94581967  0.35769946     0.28100
H1427       H  0.36785633  0.97093823  0.42326004     0.18600
H1428       H  0.38236484  0.52650241  0.32590554     0.18700
C1429       C  0.10297915  0.49955251  0.39944685    -0.07200
C1430       C  0.12906652  0.51795151  0.40323671    -0.18300
C1431       C  0.15166627  0.51970762  0.38060690     0.10000
C1432       C  0.14837936  0.50232904  0.35358180    -0.07100
C1433       C  0.12251065  0.98358270  0.35004753    -0.18300
C1434       C  0.10014515  0.98155335  0.37282140     0.10100
S1435       S  0.18327709  0.54550837  0.38721151    -0.33300
S1436       S  0.06971124  0.95422156  0.36724659    -0.33300
H1437       H  0.06890338  0.94470489  0.39794928     0.28100
H1438       H  0.18599854  0.55492382  0.35662027     0.28100
H1439       H  0.13142080  0.53181371  0.42358354     0.18600
H1440       H  0.12025025  0.96957048  0.32979617     0.18700
C1441       C  0.14647477  0.50158568  0.14884934    -0.07200
C1442       C  0.14670750  0.97853982  0.12671818    -0.18300
C1443       C  0.12355099  0.97674578  0.10471600     0.10000
C1444       C  0.10024308  0.49910401  0.10404944    -0.07100
C1445       C  0.09977940  0.52188810  0.12642691    -0.18300
C1446       C  0.12285798  0.52361022  0.14857464     0.10100
S1447       S  0.12408213  0.94449319  0.07939839    -0.33300
S1448       S  0.12183092  0.55534119  0.17468687    -0.33300
H1449       H  0.15391652  0.55861994  0.17720020     0.28100
H1450       H  0.09207625  0.94234506  0.07558771     0.28100
H1451       H  0.16450022  0.96127490  0.12718455     0.18600
H1452       H  0.08193162  0.53908789  0.12597293     0.18700
C1453       C  0.39626634  0.49530367  0.10154184    -0.07200
C1454       C  0.36960050  0.51258254  0.09655922    -0.18300
C1455       C  0.34683666  0.51498445  0.11891841     0.10000
C1456       C  0.35032950  0.49912292  0.14682369    -0.07100
C1457       C  0.37672357  0.98152348  0.15161682    -0.18300
C1458       C  0.39947939  0.97910375  0.12925073     0.10100
S1459       S  0.31503723  0.54015704  0.11104644    -0.33300
S1460       S  0.43118535  0.95382642  0.13702657    -0.33300
H1461       H  0.43337703  0.94284471  0.10691687     0.28100
H1462       H  0.31349072  0.55201211  0.14086298     0.28100
H1463       H  0.36702594  0.52537029  0.07553173     0.18600
H1464       H  0.37928867  0.96880360  0.17268523     0.18700
C1465       C  0.00036304  0.60261587  0.39798784    -0.07200
C1466       C  0.99203083  0.63248301  0.40602020    -0.18300
C1467       C  0.98929095  0.65564080  0.38418391     0.10000
C1468       C  0.99631211  0.64956629  0.35311703    -0.07100
C1469       C  0.50417624  0.61963756  0.34506345    -0.18300
C1470       C  0.50738714  0.59661450  0.36691789     0.10100
S1471       S  0.97486550  0.69168658  0.39762508    -0.33300
S1472       S  0.52311276  0.56108696  0.35352172    -0.33300
H1473       H  0.54412986  0.55835640  0.37784316     0.28100
H1474       H  0.95447737  0.69554037  0.37295676     0.28100
H1475       H  0.98690062  0.63790647  0.42958667     0.18600
H1476       H  0.50907177  0.61419570  0.32149807     0.18700
C1477       C  0.00043116  0.89841070  0.39775144    -0.07200
C1478       C  0.50963510  0.86872695  0.40549867    -0.18300
C1479       C  0.51392710  0.84613686  0.38331798     0.10000
C1480       C  0.00625786  0.85242322  0.35252382    -0.07100
C1481       C  0.99673274  0.88195648  0.34482269    -0.18300
C1482       C  0.99314702  0.90464446  0.36684084     0.10100
S1483       S  0.53222042  0.81085392  0.39450750    -0.33300
S1484       S  0.97707333  0.94015596  0.35384812    -0.33300
H1485       H  0.95547484  0.94175076  0.37776908     0.28100
H1486       H  0.52917360  0.81456279  0.42625747     0.28100
H1487       H  0.51423717  0.86330622  0.42904227     0.18600
H1488       H  0.99123745  0.88740646  0.32139036     0.18700
C1489       C  0.99491799  0.85361627  0.14881706    -0.07200
C1490       C  0.00900494  0.88164866  0.15511219    -0.18300
C1491       C  0.01193089  0.90405950  0.13272414     0.10000
C1492       C  0.99904010  0.89919923  0.10342857    -0.07100
C1493       C  0.48405591  0.87156196  0.09740064    -0.18300
C1494       C  0.48144035  0.84900538  0.11976746     0.10100
S1495       S  0.03423717  0.93724108  0.14265072    -0.33300
S1496       S  0.45884598  0.81591002  0.11035560    -0.33300
H1497       H  0.44453853  0.81415473  0.13916283     0.28100
H1498       H  0.04926075  0.93913831  0.11425879     0.28100
H1499       H  0.01903696  0.88575167  0.17736028     0.18600
H1500       H  0.47339287  0.86782771  0.07533660     0.18700
C1501       C  0.99919319  0.64955082  0.14701413    -0.07200
C1502       C  0.49370181  0.61923540  0.15576824    -0.18300
C1503       C  0.49151836  0.59568430  0.13437749     0.10000
C1504       C  0.99597070  0.60190905  0.10287801    -0.07100
C1505       C  0.00123251  0.63222338  0.09409411    -0.18300
C1506       C  0.00343642  0.65576241  0.11545066     0.10100
S1507       S  0.48155756  0.55871343  0.14923919    -0.33300
S1508       S  0.01330587  0.69264096  0.10035664    -0.33300
H1509       H  0.03796735  0.69678376  0.12075676     0.28100
H1510       H  0.45758436  0.55422356  0.12809028     0.28100
H1511       H  0.49033859  0.61366561  0.17963615     0.18600
H1512       H  0.00462678  0.63777354  0.07022567     0.18700
O1513       O  0.99738860  0.54941574  0.58741800    -0.81200
O1514       O  0.99957365  0.54987107  0.91345929    -0.82700
O1515       O  0.04868152  0.58763007  0.50380738    -0.79800
O1516       O  0.44687218  0.58431432  0.49792306    -0.78100
O1517       O  0.41038163  0.54672967  0.49924681    -0.79900
O1518       O  0.08640250  0.55130785  0.50356634    -0.80900
O1519       O  0.00035171  0.58675422  0.95003505    -0.82200
O1520       O  0.99574205  0.58625435  0.55087036    -0.82500
Eu1521     Eu  0.99843485  0.56162288  0.50055398     2.39200
O1522       O  0.46814631  0.53005377  0.96947250    -0.90000
O1523       O  0.02975836  0.53111139  0.53170082    -0.93600
C1524       C  0.99591174  0.57747593  0.57904828     1.01100
C1525       C  0.00034099  0.57798056  0.92183540     1.00900
C1526       C  0.07715835  0.57918332  0.50440414     1.00900
C1527       C  0.41875992  0.57484812  0.49791589     0.98700
H1528       H  0.04379785  0.54423279  0.95727636     0.28500
O1529       O  0.03100510  0.53136468  0.96985692    -1.02400
H1530       H  0.45366101  0.54218361  0.54362282     0.28500
O1531       O  0.46709832  0.52998735  0.53101966    -1.04900
O1532       O  0.00069766  0.94986228  0.91410225    -0.82100
O1533       O  0.99807366  0.95038996  0.58756114    -0.81700
O1534       O  0.08764948  0.50150154  0.95111939    -0.80100
O1535       O  0.41230955  0.49898595  0.94983384    -0.83500
O1536       O  0.41157751  0.49602030  0.54948092    -0.81300
O1537       O  0.08606958  0.49968934  0.55213402    -0.80000
O1538       O  0.05317988  0.91464231  0.49875181    -0.81500
O1539       O  0.45343033  0.91051074  0.49864258    -0.83400
O1540       O  0.08973420  0.95189810  0.49887016    -0.80100
O1541       O  0.41507481  0.94619851  0.49851552    -0.82800
O1542       O  0.05060201  0.49941203  0.91402159    -0.78600
O1543       O  0.04810893  0.50050788  0.58846640    -0.78600
O1544       O  0.44827256  0.49705897  0.58687446    -0.78200
O1545       O  0.45002167  0.49988751  0.91346680    -0.81700
O1546       O  0.00085497  0.91292357  0.95064048    -0.81200
O1547       O  0.00133003  0.91345748  0.55098246    -0.79500
Eu1548     Eu  0.00026731  0.49999512  0.93886057     2.39800
Eu1549     Eu  0.99865098  0.49967307  0.56204351     2.39600
Eu1550     Eu  0.06226600  0.50096144  0.50128528     2.38400
Eu1551     Eu  0.43745635  0.49779255  0.49976282     2.39900
Eu1552     Eu  0.00190148  0.93807860  0.50033094     2.39800
O1553       O  0.46895170  0.96760527  0.53096425    -0.93900
O1554       O  0.03210704  0.96955379  0.96968406    -0.92800
C1555       C  0.00034582  0.92175329  0.92251199     1.01300
C1556       C  0.99979434  0.92242174  0.57906910     1.00000
C1557       C  0.07882242  0.50008813  0.92301404     0.99400
C1558       C  0.42158828  0.49985164  0.92182765     1.01400
C1559       C  0.42014173  0.49576743  0.57769802     1.00300
C1560       C  0.07648315  0.49980660  0.58004479     0.99200
C1561       C  0.08139165  0.92369734  0.49789165     0.99200
C1562       C  0.42496131  0.91845779  0.49807014     1.01800
H1563       H  0.04443642  0.95675285  0.54495913     0.29200
O1564       O  0.03161045  0.96932277  0.53213049    -1.06100
H1565       H  0.45724899  0.95547022  0.95646493     0.31300
O1566       O  0.46971059  0.96827301  0.96941235    -1.08600
O1567       O  0.99839344  0.70146173  0.66311162    -0.81200
O1568       O  0.00066765  0.70091296  0.83729705    -0.82700
O1569       O  0.05034244  0.66434217  0.75048404    -0.79800
O1570       O  0.44873307  0.66493103  0.74855400    -0.78100
O1571       O  0.41190302  0.70205657  0.75123363    -0.79900
O1572       O  0.08789900  0.70081712  0.75041648    -0.80900
O1573       O  0.99682843  0.66446832  0.80045827    -0.82200
O1574       O  0.00008593  0.66449807  0.69953821    -0.82500
Eu1575     Eu  0.99979018  0.68927621  0.74993446     2.39200
O1576       O  0.46969029  0.72031111  0.78167655    -0.90000
O1577       O  0.03092157  0.71996061  0.71842456    -0.93600
C1578       C  0.99932633  0.67333109  0.67137938     1.01100
C1579       C  0.99769057  0.67301942  0.82872149     1.00900
C1580       C  0.07873674  0.67293224  0.75112622     1.00900
C1581       C  0.42046453  0.67396764  0.74938421     0.98700
H1582       H  0.04525904  0.70678826  0.79281692     0.28500
O1583       O  0.03255645  0.71954764  0.78009015    -1.02400
H1584       H  0.45550264  0.70838139  0.70713841     0.28500
O1585       O  0.46859911  0.72084469  0.71978195    -1.04900
O1586       O  0.00446085  0.79997613  0.83718906    -0.82100
O1587       O  0.99762421  0.80148962  0.66351840    -0.81700
O1588       O  0.08990690  0.75231308  0.79773718    -0.80100
O1589       O  0.41526641  0.75126992  0.80270298    -0.83500
O1590       O  0.41176248  0.75186725  0.70192253    -0.81300
O1591       O  0.08713446  0.74799994  0.69741955    -0.80000
O1592       O  0.05173781  0.83736074  0.74892399    -0.81500
O1593       O  0.45156862  0.83882584  0.75142080    -0.83400
O1594       O  0.08902181  0.80052250  0.74907344    -0.80100
O1595       O  0.41396925  0.80252191  0.75208054    -0.82800
O1596       O  0.05344961  0.75014990  0.83545408    -0.78600
O1597       O  0.04900642  0.75047664  0.66138108    -0.78600
O1598       O  0.44871475  0.75152069  0.66466442    -0.78200
O1599       O  0.45349028  0.75090157  0.83857075    -0.81700
O1600       O  0.00463926  0.83704953  0.80079692    -0.81200
O1601       O  0.99760077  0.83797703  0.70065868    -0.79500
Eu1602     Eu  0.00246928  0.75055916  0.81165615     2.39800
Eu1603     Eu  0.99956620  0.75141406  0.68832537     2.39600
Eu1604     Eu  0.06322387  0.75071889  0.74842912     2.38400
Eu1605     Eu  0.43821968  0.75179557  0.75154481     2.39900
Eu1606     Eu  0.00132548  0.81267094  0.75036532     2.39800
O1607       O  0.46915458  0.78229915  0.71997872    -0.93900
O1608       O  0.03301443  0.78145869  0.78027857    -0.92800
C1609       C  0.00536521  0.82805622  0.82889145     1.01300
C1610       C  0.99653054  0.82941773  0.67249065     1.00000
C1611       C  0.08150244  0.75125285  0.82596678     0.99400
C1612       C  0.42502929  0.75121669  0.83055909     1.01400
C1613       C  0.42052733  0.75126340  0.67373640     1.00300
C1614       C  0.07743822  0.74862307  0.66952670     0.99200
C1615       C  0.07997987  0.82847305  0.74900757     0.99200
C1616       C  0.42314251  0.83049751  0.75196953     1.01800
H1617       H  0.04448785  0.79491817  0.70498912     0.29200
O1618       O  0.03196351  0.78230316  0.71809629    -1.06100
H1619       H  0.45827388  0.79498413  0.79531952     0.31300
O1620       O  0.47048400  0.78217706  0.78210534    -1.08600
O1621       O  0.33564082  0.00025391  0.69860647    -0.81200
O1622       O  0.16152277  0.00256830  0.70050850    -0.82700
O1623       O  0.24836453  0.94914169  0.66364734    -0.79800
O1624       O  0.24891650  0.54914601  0.66214420    -0.78100
O1625       O  0.25078043  0.58627805  0.69868118    -0.79900
O1626       O  0.24888048  0.91256356  0.70066629    -0.80900
O1627       O  0.19825959  0.99938656  0.66313686    -0.82200
O1628       O  0.29796287  0.99858667  0.66213680    -0.82500
Eu1629     Eu  0.24845894  0.99955686  0.68818247     2.39200
O1630       O  0.21798034  0.53138606  0.71883377    -0.90000
O1631       O  0.28000060  0.96932769  0.71929485    -0.93600
C1632       C  0.32629977  0.99946815  0.67059896     1.01100
C1633       C  0.17018915  0.00128092  0.67234238     1.00900
C1634       C  0.24895404  0.92110689  0.67239980     1.00900
C1635       C  0.25035452  0.57724074  0.67059605     0.98700
H1636       H  0.20418751  0.95653154  0.70713481     0.28500
O1637       O  0.21724633  0.96921755  0.71962769    -1.02400
H1638       H  0.29329213  0.54343992  0.70530401     0.28500
O1639       O  0.28047635  0.53089139  0.71819911    -1.04900
O1640       O  0.16242659  0.00166464  0.80127108    -0.82100
O1641       O  0.33681900  0.99862541  0.79990766    -0.81700
O1642       O  0.19789637  0.91496369  0.75257382    -0.80100
O1643       O  0.20000863  0.58749323  0.74914315    -0.83500
O1644       O  0.29982430  0.58737587  0.75089788    -0.81300
O1645       O  0.29979218  0.91405072  0.74896270    -0.80000
O1646       O  0.24890170  0.95085425  0.83771505    -0.81500
O1647       O  0.25075651  0.55093933  0.83668756    -0.83400
O1648       O  0.24935005  0.91380379  0.80108152    -0.80100
O1649       O  0.25034627  0.58729059  0.79925485    -0.82800
O1650       O  0.16073068  0.95192737  0.75086902    -0.78600
O1651       O  0.33691546  0.95089432  0.74771186    -0.78600
O1652       O  0.33731786  0.55090625  0.75046905    -0.78200
O1653       O  0.16225509  0.55134258  0.74975125    -0.81700
O1654       O  0.20006205  0.00092426  0.83782216    -0.81200
O1655       O  0.29978620  0.99939230  0.83700461    -0.79500
Eu1656     Eu  0.18693699  0.00116608  0.75059481     2.39800
Eu1657     Eu  0.31172417  0.00058799  0.74953023     2.39600
Eu1658     Eu  0.24895488  0.93862054  0.75056542     2.38400
Eu1659     Eu  0.24987148  0.56193759  0.74939766     2.39900
Eu1660     Eu  0.24975877  0.00066801  0.81191316     2.39800
O1661       O  0.28104449  0.53149699  0.78082620    -0.93900
O1662       O  0.21800774  0.96992632  0.78146490    -0.92800
C1663       C  0.17173120  0.00164266  0.82929622     1.01300
C1664       C  0.32798257  0.99824392  0.82810263     1.00000
C1665       C  0.16968005  0.92401163  0.75215791     0.99400
C1666       C  0.17160068  0.57918844  0.74899144     1.01400
C1667       C  0.32817091  0.57890329  0.75127005     1.00300
C1668       C  0.32809734  0.92288127  0.74768134     0.99200
C1669       C  0.24892036  0.92273519  0.82921247     0.99200
C1670       C  0.25046322  0.57885085  0.82748153     1.01800
H1671       H  0.29348389  0.95676556  0.79347002     0.29200
O1672       O  0.28068237  0.96959671  0.78086315    -1.06100
H1673       H  0.20600992  0.54480745  0.79389115     0.31300
O1674       O  0.21857656  0.53189118  0.78116315    -1.08600
O1675       O  0.19932250  0.66319733  0.99814178    -0.81200
O1676       O  0.20276502  0.83694614  0.99982778    -0.82700
O1677       O  0.16196834  0.75075143  0.54765350    -0.79800
O1678       O  0.16478166  0.75191903  0.94725744    -0.78100
O1679       O  0.20268665  0.75393727  0.91093481    -0.79900
O1680       O  0.19859508  0.74770185  0.58518567    -0.80900
O1681       O  0.16476506  0.80099788  0.99928618    -0.82200
O1682       O  0.16250673  0.70034880  0.99860357    -0.82500
Eu1683     Eu  0.18855636  0.75029136  0.99808066     2.39200
O1684       O  0.22106982  0.78141141  0.96850545    -0.90000
O1685       O  0.21839008  0.71872142  0.52934894    -0.93600
C1686       C  0.17113674  0.67221510  0.99836777     1.01100
C1687       C  0.17426076  0.82883798  0.00005787     1.00900
C1688       C  0.17050841  0.74934961  0.57586722     1.00900
C1689       C  0.17428086  0.75360072  0.91937797     0.94300
H1690       H  0.20710517  0.79283962  0.54261891     0.28500
O1691       O  0.22005391  0.78014768  0.52997407    -1.02400
H1692       H  0.20678576  0.70698642  0.95358881     0.28500
O1693       O  0.21950198  0.71929064  0.96682589    -1.04900
O1694       O  0.30431871  0.83407306  0.00285183    -0.82100
O1695       O  0.29893202  0.66150245  0.99905117    -0.81700
O1696       O  0.24761776  0.79803197  0.58765260    -0.80100
O1697       O  0.25366096  0.80104606  0.91331495    -0.83500
O1698       O  0.25267675  0.70115608  0.91109441    -0.81300
O1699       O  0.24875439  0.69799475  0.58578462    -0.80000
O1700       O  0.33748384  0.74820683  0.55144709    -0.81500
O1701       O  0.33970209  0.74683012  0.95156553    -0.83400
O1702       O  0.29948137  0.74964153  0.58759853    -0.80100
O1703       O  0.30323382  0.74963177  0.91401117    -0.82800
O1704       O  0.24981375  0.83508333  0.55119271    -0.78600
O1705       O  0.24821672  0.66189287  0.54816742    -0.78600
O1706       O  0.25222067  0.66393031  0.94767828    -0.78200
O1707       O  0.25401259  0.83725370  0.95079700    -0.81700
O1708       O  0.34069886  0.79649260  0.00061147    -0.81200
O1709       O  0.33716404  0.69726235  0.99988974    -0.79500
Eu1710     Eu  0.25264697  0.81102317  0.00051812     2.39800
Eu1711     Eu  0.24965757  0.68786188  0.99846924     2.39600
Eu1712     Eu  0.24968014  0.74841359  0.56142186     2.38400
Eu1713     Eu  0.25217060  0.75059737  0.93748390     2.39900
Eu1714     Eu  0.31325686  0.74786341  0.00081613     2.39800
O1715       O  0.28193925  0.71856633  0.96861569    -0.93900
O1716       O  0.28261445  0.77902027  0.53179263    -0.92800
C1717       C  0.33244945  0.82460207  0.00212765     1.01300
C1718       C  0.32738195  0.66955181  0.99964920     1.00000
C1719       C  0.24764742  0.82619940  0.57927464     0.99400
C1720       C  0.25430660  0.82893180  0.92248109     1.01400
C1721       C  0.25313057  0.67303940  0.91963514     1.00300
C1722       C  0.24810403  0.67012538  0.57649010     0.99200
C1723       C  0.32795375  0.74963054  0.57935115     0.99200
C1724       C  0.33128105  0.74771352  0.92334656     1.01800
H1725       H  0.29330278  0.70401876  0.54363298     0.29200
O1726       O  0.28098403  0.71709688  0.53081407    -1.06100
H1727       H  0.29712859  0.79266217  0.95719957     0.31300
O1728       O  0.28372725  0.78010905  0.96948220    -1.08600
C1729       C  0.25117942  0.60071078  0.64622954    -0.07200
C1730       C  0.23310642  0.59638578  0.61996679    -0.18300
C1731       C  0.23106362  0.61872785  0.59721994     0.10000
C1732       C  0.24810313  0.64599215  0.60018308    -0.07100
C1733       C  0.26657934  0.65007511  0.62619370    -0.18300
C1734       C  0.26865433  0.62773064  0.64889502     0.10100
S1735       S  0.20486880  0.61170190  0.56604332    -0.33300
S1736       S  0.29529319  0.63450427  0.67975505    -0.33300
H1737       H  0.30556840  0.60421007  0.68149826     0.28100
H1738       H  0.19417901  0.64184047  0.56418140     0.28100
H1739       H  0.21947072  0.57588352  0.61766500     0.18600
H1740       H  0.28029721  0.67053262  0.62845074     0.18700
C1741       C  0.24911418  0.89698078  0.64840415    -0.07200
C1742       C  0.23580141  0.86857099  0.65504349    -0.18300
C1743       C  0.23383212  0.84546637  0.63299905     0.10000
C1744       C  0.24598417  0.85031478  0.60330251    -0.07100
C1745       C  0.25836045  0.87905781  0.59651526    -0.18300
C1746       C  0.26104820  0.90182137  0.61867073     0.10100
S1747       S  0.21384798  0.81125733  0.64402207    -0.33300
S1748       S  0.28212117  0.93546034  0.60779092    -0.33300
H1749       H  0.29860322  0.93728016  0.63540672     0.28100
H1750       H  0.19786334  0.80844094  0.61622616     0.28100
H1751       H  0.22601808  0.86451243  0.67744958     0.18600
H1752       H  0.26724093  0.88361406  0.57390196     0.18700
C1753       C  0.24941712  0.89889245  0.85331493    -0.07200
C1754       C  0.26691712  0.87252382  0.84816090    -0.18300
C1755       C  0.26986063  0.84990222  0.87050416     0.10000
C1756       C  0.25450229  0.85316775  0.89884707    -0.07100
C1757       C  0.23715692  0.87960768  0.90410100    -0.18300
C1758       C  0.23394050  0.90207324  0.88161313     0.10100
S1759       S  0.29470733  0.81821449  0.86173981    -0.33300
S1760       S  0.20793894  0.93296599  0.88980173    -0.33300
H1761       H  0.19599937  0.93482703  0.85999152     0.28100
H1762       H  0.30689089  0.81564387  0.89141207     0.28100
H1763       H  0.27920247  0.86985823  0.82678096     0.18600
H1764       H  0.22477777  0.88218467  0.92544291     0.18700
C1765       C  0.25045184  0.60299659  0.85097370    -0.07200
C1766       C  0.27050225  0.60027070  0.87595019    -0.18300
C1767       C  0.27292587  0.62335083  0.89785304     0.10000
C1768       C  0.25405732  0.64945064  0.89553105    -0.07100
C1769       C  0.23421689  0.65229975  0.87039396    -0.18300
C1770       C  0.23195933  0.62933857  0.84834864     0.10100
S1771       S  0.30174942  0.61884936  0.92716448    -0.33300
S1772       S  0.20394006  0.63443823  0.81833783    -0.33300
H1773       H  0.19534487  0.60364154  0.81663455     0.28100
H1774       H  0.30905889  0.64993495  0.92933954     0.28100
H1775       H  0.28522791  0.58047509  0.87783242     0.18600
H1776       H  0.21947809  0.67208201  0.86850809     0.18700
C1777       C  0.39614548  0.65030974  0.74845304    -0.07200
C1778       C  0.37121943  0.65246566  0.76871668    -0.18300
C1779       C  0.34898165  0.62943937  0.77050963     0.10000
C1780       C  0.35174951  0.60322903  0.75184734    -0.07100
C1781       C  0.37635675  0.60139235  0.73121960    -0.18300
C1782       C  0.39782233  0.62498779  0.72860579     0.10100
S1783       S  0.31813768  0.63472630  0.79758702    -0.33300
S1784       S  0.42498618  0.62267137  0.69763496    -0.33300
H1785       H  0.42612099  0.65416093  0.69207431     0.28100
H1786       H  0.31620128  0.60395390  0.80610493     0.28100
H1787       H  0.36941325  0.67192546  0.78380454     0.18600
H1788       H  0.37794635  0.58213874  0.71584068     0.18700
C1789       C  0.39917210  0.85457750  0.75148989    -0.07200
C1790       C  0.37148117  0.84852997  0.73607603    -0.18300
C1791       C  0.34850570  0.87061927  0.73321957     0.10000
C1792       C  0.35248560  0.89936786  0.74714080    -0.07100
C1793       C  0.38033937  0.90564636  0.76208087    -0.18300
C1794       C  0.40350268  0.88375921  0.76452456     0.10100
S1795       S  0.31570572  0.86118166  0.70984851    -0.33300
S1796       S  0.43721971  0.89444481  0.78578077    -0.33300
H1797       H  0.43929274  0.86659769  0.80148003     0.28100
H1798       H  0.31322605  0.89020947  0.69652777     0.28100
H1799       H  0.36809929  0.82669734  0.72510367     0.18600
H1800       H  0.38379254  0.92756196  0.77288576     0.18700
C1801       C  0.10271181  0.64917776  0.75222299    -0.07200
C1802       C  0.13038683  0.65431244  0.73662032    -0.18300
C1803       C  0.15260990  0.63159098  0.73394737     0.10000
C1804       C  0.14798314  0.60330237  0.74865959    -0.07100
C1805       C  0.12067800  0.59847554  0.76505464    -0.18300
C1806       C  0.09839682  0.62119481  0.76746024     0.10100
S1807       S  0.18526356  0.63971916  0.70986251    -0.33300
S1808       S  0.06653338  0.61400087  0.79261958    -0.33300
H1809       H  0.06572922  0.64367704  0.80467007     0.28100
H1810       H  0.18627377  0.61056638  0.69665690     0.28100
H1811       H  0.13440657  0.67594325  0.72556967     0.18600
H1812       H  0.11718376  0.57726624  0.77718988     0.18700
C1813       C  0.10357095  0.85232062  0.74902560    -0.07200
C1814       C  0.12339676  0.85466480  0.77417227    -0.18300
C1815       C  0.14448584  0.87858489  0.77634520     0.10000
C1816       C  0.14591253  0.90042652  0.75273745    -0.07100
C1817       C  0.12587859  0.89824153  0.72776772    -0.18300
C1818       C  0.10518292  0.87407445  0.72540298     0.10100
S1819       S  0.16837854  0.88045018  0.81004409    -0.33300
S1820       S  0.08278185  0.87105686  0.69091833    -0.33300
H1821       H  0.08293143  0.83908337  0.68985032     0.28100
H1822       H  0.17153947  0.91227711  0.81042469     0.28100
H1823       H  0.12191624  0.83819881  0.79254312     0.18600
H1824       H  0.12735840  0.91466518  0.70934134     0.18700
C1825       C  0.39664093  0.75002403  0.64990111    -0.07200
C1826       C  0.37067296  0.76871503  0.65270729    -0.18300
C1827       C  0.34830898  0.76972580  0.62975088     0.10000
C1828       C  0.35149623  0.75102696  0.60360745    -0.07100
C1829       C  0.37757746  0.73249244  0.60079429    -0.18300
C1830       C  0.39987509  0.73148122  0.62370696     0.10100
S1831       S  0.31729805  0.79656741  0.63451881    -0.33300
S1832       S  0.43099553  0.70483556  0.61879285    -0.33300
H1833       H  0.43188647  0.69589254  0.64964710     0.28100
H1834       H  0.31556980  0.80463700  0.60345796     0.28100
H1835       H  0.36830686  0.78342293  0.67244212     0.18600
H1836       H  0.38012216  0.71787145  0.58101815     0.18700
C1837       C  0.10061248  0.74768031  0.64500376    -0.07200
C1838       C  0.10203990  0.77211738  0.62446429    -0.18300
C1839       C  0.12478247  0.77348239  0.60186854     0.10000
C1840       C  0.14642720  0.74964321  0.59946439    -0.07100
C1841       C  0.14488731  0.72512344  0.61989082    -0.18300
C1842       C  0.12183147  0.72355855  0.64212933     0.10100
S1843       S  0.12556407  0.80678729  0.57775394    -0.33300
S1844       S  0.11958263  0.68934966  0.66464665    -0.33300
H1845       H  0.08772591  0.69042219  0.67003058     0.28100
H1846       H  0.15747294  0.80705767  0.57273814     0.28100
H1847       H  0.08580976  0.79070229  0.62659368     0.18600
H1848       H  0.16116000  0.70655901  0.61782281     0.18700
C1849       C  0.10578440  0.75105504  0.84925659    -0.07200
C1850       C  0.12771039  0.77448160  0.84919911    -0.18300
C1851       C  0.14998062  0.77641458  0.87220346     0.10000
C1852       C  0.15069936  0.75405927  0.89538003    -0.07100
C1853       C  0.12889225  0.73059189  0.89525925    -0.18300
C1854       C  0.10671957  0.72862392  0.87230715     0.10100
S1855       S  0.17579864  0.80855171  0.87151877    -0.33300
S1856       S  0.08111987  0.69629777  0.87305364    -0.33300
H1857       H  0.07821801  0.69355445  0.84117031     0.28100
H1858       H  0.17834106  0.81138670  0.90343570     0.28100
H1859       H  0.12684429  0.79190495  0.83169726     0.18600
H1860       H  0.12970522  0.71313554  0.91274033     0.18700
C1861       C  0.40169547  0.75076629  0.85491811    -0.07200
C1862       C  0.37472003  0.73408428  0.84967596    -0.18300
C1863       C  0.35186102  0.73187855  0.87185312     0.10000
C1864       C  0.35564467  0.74709982  0.90002442    -0.07100
C1865       C  0.38287741  0.76333967  0.90558594    -0.18300
C1866       C  0.40576486  0.76565582  0.88330975     0.10100
S1867       S  0.31909036  0.70830018  0.86304955    -0.33300
S1868       S  0.43857060  0.78924552  0.89212302    -0.33300
H1869       H  0.44047816  0.80243338  0.86288902     0.28100
H1870       H  0.31677712  0.69587294  0.89257351     0.28100
H1871       H  0.37167404  0.72200263  0.82830060     0.18600
H1872       H  0.38584838  0.77534230  0.92701719     0.18700
C1873       C  0.35717050  0.84768649  0.50268206    -0.07200
C1874       C  0.38091681  0.84590232  0.98115617    -0.18300
C1875       C  0.40316730  0.86884408  0.97895509     0.10000
C1876       C  0.40184283  0.89400307  0.49814832    -0.07100
C1877       C  0.37764106  0.89636215  0.51910395    -0.18300
C1878       C  0.35583333  0.87330705  0.52206094     0.10100
S1879       S  0.43234367  0.86468288  0.94989548    -0.33300
S1880       S  0.32820339  0.87714806  0.55241513    -0.33300
H1881       H  0.32604939  0.84587707  0.55882036     0.28100
H1882       H  0.43504514  0.89587862  0.94340329     0.28100
H1883       H  0.38173252  0.82693862  0.96535615     0.18600
H1884       H  0.37637888  0.91586847  0.53420018     0.18700
C1885       C  0.35009522  0.64470761  0.49967979    -0.07200
C1886       C  0.37511730  0.64724638  0.97931747    -0.18300
C1887       C  0.39675738  0.62393905  0.97708116     0.10000
C1888       C  0.39440269  0.59809955  0.49672654    -0.07100
C1889       C  0.36943758  0.59578137  0.51690066    -0.18300
C1890       C  0.34729279  0.61877835  0.51862227     0.10100
S1891       S  0.42484387  0.62681017  0.94703979    -0.33300
S1892       S  0.31685317  0.61420399  0.54629410    -0.33300
H1893       H  0.31536664  0.64510952  0.55442815     0.28100
H1894       H  0.42588171  0.59544050  0.94076913     0.28100
H1895       H  0.37680209  0.66658590  0.96403336     0.18600
H1896       H  0.36771108  0.57641322  0.53213187     0.18700
C1897       C  0.15127885  0.85372854  0.50016013    -0.07200
C1898       C  0.12225839  0.84751161  0.98659525    -0.18300
C1899       C  0.09964036  0.86995587  0.98475335     0.10000
C1900       C  0.10581953  0.89993230  0.49651617    -0.07100
C1901       C  0.13408999  0.90533796  0.51105365    -0.18300
C1902       C  0.15610946  0.88229099  0.51428164     0.10100
S1903       S  0.06502123  0.85966761  0.96508759    -0.33300
S1904       S  0.18824006  0.88988662  0.53917223    -0.33300
H1905       H  0.18782289  0.86087816  0.55280455     0.28100
H1906       H  0.06354163  0.88708800  0.94855241     0.28100
H1907       H  0.11778175  0.82553032  0.97631418     0.18600
H1908       H  0.13853381  0.92724645  0.52131196     0.18700
C1909       C  0.14673607  0.64879182  0.49913889    -0.07200
C1910       C  0.12130512  0.65280392  0.51850525    -0.18300
C1911       C  0.09893805  0.63009580  0.52182578     0.10000
C1912       C  0.10128483  0.60299080  0.50459501    -0.07100
C1913       C  0.12678281  0.59907583  0.98416003    -0.18300
C1914       C  0.14922739  0.62166360  0.98122188     0.10100
S1915       S  0.06925736  0.63640230  0.54982899    -0.33300
S1916       S  0.17909800  0.61548500  0.95327206    -0.33300
H1917       H  0.18027368  0.64592248  0.94341887     0.28100
H1918       H  0.06644142  0.60573527  0.55854496     0.28100
H1919       H  0.11944136  0.67333887  0.53207124     0.18600
H1920       H  0.12837295  0.57896376  0.96993008     0.18700
C1921       C  0.39782579  0.50012327  0.89762603    -0.07200
C1922       C  0.37045035  0.98400753  0.90267637    -0.18300
C1923       C  0.34771083  0.98204215  0.88020305     0.10000
C1924       C  0.35196280  0.49707329  0.85195813    -0.07100
C1925       C  0.37943579  0.51295956  0.84677050    -0.18300
C1926       C  0.40212601  0.51501233  0.86924581     0.10100
S1927       S  0.31458271  0.95878406  0.88869860    -0.33300
S1928       S  0.43509002  0.53837043  0.86056573    -0.33300
H1929       H  0.43673530  0.55163941  0.88976621     0.28100
H1930       H  0.31258276  0.94614323  0.85923521     0.28100
H1931       H  0.36704153  0.97201869  0.92405385     0.18600
H1932       H  0.38281357  0.52493602  0.82537983     0.18700
C1933       C  0.10286877  0.49944197  0.89935393    -0.07200
C1934       C  0.12826280  0.51889090  0.90243985    -0.18300
C1935       C  0.15080769  0.52058728  0.87974023     0.10000
C1936       C  0.14812255  0.50217027  0.85336863    -0.07100
C1937       C  0.12293280  0.98243508  0.85052215    -0.18300
C1938       C  0.10068421  0.98040221  0.87342712     0.10100
S1939       S  0.18159992  0.54756311  0.88533969    -0.33300
S1940       S  0.07127947  0.95177694  0.86900814    -0.33300
H1941       H  0.07008429  0.94395675  0.90017629     0.28100
H1942       H  0.18419474  0.55579670  0.85439306     0.28100
H1943       H  0.13011025  0.53353135  0.92228229     0.18600
H1944       H  0.12117741  0.96766608  0.83077065     0.18700
C1945       C  0.14621833  0.50164772  0.64876531    -0.07200
C1946       C  0.14579769  0.97803683  0.62725532    -0.18300
C1947       C  0.12254133  0.97621549  0.60535510     0.10000
C1948       C  0.09977488  0.49903643  0.60422107    -0.07100
C1949       C  0.09996420  0.52245076  0.62592839    -0.18300
C1950       C  0.12319776  0.52426151  0.64790851     0.10100
S1951       S  0.12238004  0.94341231  0.58072729    -0.33300
S1952       S  0.12317451  0.55682573  0.67299424    -0.33300
H1953       H  0.15531872  0.55896206  0.67591800     0.28100
H1954       H  0.09047986  0.94235501  0.57591205     0.28100
H1955       H  0.16319087  0.96039400  0.62812567     0.18600
H1956       H  0.08255703  0.54006998  0.62501732     0.18700
C1957       C  0.39579645  0.49497897  0.60113576    -0.07200
C1958       C  0.36924643  0.51245444  0.59622500    -0.18300
C1959       C  0.34653691  0.51498870  0.61863718     0.10000
C1960       C  0.34994718  0.49902524  0.64650109    -0.07100
C1961       C  0.37620240  0.98114986  0.65119192    -0.18300
C1962       C  0.39891964  0.97866294  0.62879351     0.10100
S1963       S  0.31494238  0.54045695  0.61088249    -0.33300
S1964       S  0.43049790  0.95319650  0.63646870    -0.33300
H1965       H  0.43270719  0.94237653  0.60630031     0.28100
H1966       H  0.31321169  0.55197563  0.64081928     0.28100
H1967       H  0.36675010  0.52531640  0.57523422     0.18600
H1968       H  0.37868555  0.96831458  0.67219974     0.18700
C1969       C  0.00050638  0.60198861  0.89760360    -0.07200
C1970       C  0.99212556  0.63182643  0.90565940    -0.18300
C1971       C  0.98918362  0.65493763  0.88382720     0.10000
C1972       C  0.99622378  0.64890077  0.85277392    -0.07100
C1973       C  0.50407247  0.61896300  0.84464667    -0.18300
C1974       C  0.50734156  0.59593653  0.86648576     0.10100
S1975       S  0.97429880  0.69081724  0.89720980    -0.33300
S1976       S  0.52292392  0.56037270  0.85304347    -0.33300
H1977       H  0.54429965  0.55787465  0.87707912     0.28100
H1978       H  0.95413859  0.69456491  0.87233821     0.28100
H1979       H  0.98703961  0.63724347  0.92923525     0.18600
H1980       H  0.50890879  0.61353117  0.82105625     0.18700
C1981       C  0.00009806  0.89784354  0.89834943    -0.07200
C1982       C  0.50932953  0.86815383  0.90613390    -0.18300
C1983       C  0.51339098  0.84546319  0.88399670     0.10000
C1984       C  0.00577697  0.85177635  0.85316981    -0.07100
C1985       C  0.99618009  0.88128814  0.84547994    -0.18300
C1986       C  0.99260596  0.90397892  0.86748260     0.10100
S1987       S  0.53107852  0.80992860  0.89537190    -0.33300
S1988       S  0.97613842  0.93933620  0.85457657    -0.33300
H1989       H  0.95459414  0.94063494  0.87856888     0.28100
H1990       H  0.52840465  0.81394642  0.92711733     0.28100
H1991       H  0.51400683  0.86279872  0.92966961     0.18600
H1992       H  0.99053669  0.88670623  0.82207343     0.18700
C1993       C  0.99506003  0.85355277  0.64889667    -0.07200
C1994       C  0.00946674  0.88147075  0.65500374    -0.18300
C1995       C  0.01245120  0.90380242  0.63251339     0.10000
C1996       C  0.99941820  0.89893230  0.60326577    -0.07100
C1997       C  0.48408758  0.87144204  0.59745184    -0.18300
C1998       C  0.48130549  0.84902951  0.61995758     0.10100
S1999       S  0.03485279  0.93696551  0.64230942    -0.33300
S2000       S  0.45809324  0.81626802  0.61089385    -0.33300
H2001       H  0.44410279  0.81479381  0.63986984     0.28100
H2002       H  0.04928163  0.93925421  0.61367080     0.28100
H2003       H  0.01964007  0.88555270  0.67719368     0.18600
H2004       H  0.47322136  0.86776400  0.57547601     0.18700
C2005       C  0.99893053  0.64927534  0.64717972    -0.07200
C2006       C  0.49338317  0.61898138  0.65602667    -0.18300
C2007       C  0.49080767  0.59541449  0.63468541     0.10000
C2008       C  0.99515271  0.60155767  0.60314416    -0.07100
C2009       C  0.00047232  0.63184773  0.59428571    -0.18300
C2010       C  0.00291611  0.65542520  0.61557621     0.10100
S2011       S  0.48037246  0.55860104  0.64961869    -0.33300
S2012       S  0.01265085  0.69227459  0.60030169    -0.33300
H2013       H  0.03710269  0.69687565  0.62084589     0.28100
H2014       H  0.45656057  0.55418530  0.62827400     0.28100
H2015       H  0.49021847  0.61345502  0.67992922     0.18600
H2016       H  0.00369780  0.63735867  0.57038874     0.18700
O2017       O  0.49821905  0.04983875  0.08714799    -0.81200
O2018       O  0.49958634  0.05044877  0.41379172    -0.82700
O2019       O  0.54910053  0.08738279  0.00345914    -0.79800
O2020       O  0.94727390  0.08461446  0.99774547    -0.78100
O2021       O  0.91061034  0.04721696  0.99961234    -0.79900
O2022       O  0.58672701  0.05094571  0.00304289    -0.80900
O2023       O  0.49999962  0.08722731  0.45046695    -0.82200
O2024       O  0.49630756  0.08662431  0.05056926    -0.82500
Eu2025     Eu  0.49873008  0.06161207  0.00041039     2.39200
O2026       O  0.96804335  0.03010331  0.46943553    -0.90000
O2027       O  0.53009563  0.03115107  0.03157748    -0.93600
C2028       C  0.49667459  0.07787886  0.07875708     1.01100
C2029       C  0.50017340  0.07855080  0.42224063     1.00900
C2030       C  0.57754912  0.07884001  0.00390860     1.00900
C2031       C  0.91911205  0.07528900  0.99801063     0.98700
H2032       H  0.54379250  0.04462706  0.45748138     0.28500
O2033       O  0.53100223  0.03167522  0.46997010    -1.02400
H2034       H  0.95401189  0.04254867  0.04372802     0.28500
O2035       O  0.96733009  0.03024967  0.03110200    -1.04900
O2036       O  0.50090063  0.45035753  0.41372527    -0.82100
O2037       O  0.49818377  0.45071632  0.08772404    -0.81700
O2038       O  0.58762070  0.00163672  0.45125690    -0.80100
O2039       O  0.91248452  0.99874881  0.44957673    -0.83500
O2040       O  0.91184273  0.99625564  0.04985136    -0.81300
O2041       O  0.58637156  0.99961585  0.05198940    -0.80000
O2042       O  0.55266037  0.41449782  0.99931903    -0.81500
O2043       O  0.95296450  0.41079946  0.99912060    -0.83400
O2044       O  0.58947915  0.45145901  0.99869781    -0.80100
O2045       O  0.91466108  0.44655390  0.99927094    -0.82800
O2046       O  0.55069062  0.99975660  0.41406084    -0.78600
O2047       O  0.54851950  0.00061528  0.08841413    -0.78600
O2048       O  0.94866476  0.99747941  0.08712927    -0.78200
O2049       O  0.95023988  0.00023788  0.41326712    -0.81700
O2050       O  0.50121239  0.41324446  0.45009521    -0.81200
O2051       O  0.50085664  0.41370382  0.05120282    -0.79500
Eu2052     Eu  0.50039351  0.00032214  0.43882238     2.39800
Eu2053     Eu  0.49896422  0.99995465  0.06211748     2.39600
Eu2054     Eu  0.56234606  0.00068763  0.00121482     2.38400
Eu2055     Eu  0.93738917  0.99810176  0.99999592     2.39900
Eu2056     Eu  0.50159413  0.43817390  0.00059462     2.39800
O2057       O  0.96898212  0.46800497  0.03119138    -0.93900
O2058       O  0.53225157  0.46985688  0.46957594    -0.92800
C2059       C  0.50062934  0.42221115  0.42200447     1.01300
C2060       C  0.49954451  0.42271550  0.07926585     1.00000
C2061       C  0.57888234  0.00024882  0.42311371     0.99400
C2062       C  0.92180389  0.99992195  0.42160574     1.01400
C2063       C  0.92050800  0.99608245  0.07803636     1.00300
C2064       C  0.57687799  0.99982111  0.07993504     0.99200
C2065       C  0.58091682  0.42330923  0.99813440     0.99200
C2066       C  0.92450447  0.41879472  0.99874951     1.01800
H2067       H  0.54451334  0.45670104  0.04504590     0.29200
O2068       O  0.53171303  0.46927731  0.03220678    -1.06100
H2069       H  0.95766118  0.45550116  0.45615718     0.31300
O2070       O  0.97005027  0.46828234  0.46919586    -1.08600
O2071       O  0.49840633  0.20169347  0.16295516    -0.81200
O2072       O  0.50072334  0.20155124  0.33747767    -0.82700
O2073       O  0.54986651  0.16423391  0.24999687    -0.79800
O2074       O  0.94849891  0.16515350  0.24837145    -0.78100
O2075       O  0.91173777  0.20234046  0.25104475    -0.79900
O2076       O  0.58753293  0.20057049  0.25018853    -0.80900
O2077       O  0.49679187  0.16500033  0.30074472    -0.82200
O2078       O  0.49993334  0.16475246  0.19941790    -0.82500
Eu2079     Eu  0.49953514  0.18945841  0.24991322     2.39200
O2080       O  0.96955580  0.22065266  0.28160948    -0.90000
O2081       O  0.53070828  0.22007344  0.21839334    -0.93600
C2082       C  0.49932347  0.17357961  0.17124300     1.01100
C2083       C  0.49774531  0.17363443  0.32900254     1.00900
C2084       C  0.57828590  0.17269368  0.25070203     1.00900
C2085       C  0.92025168  0.17424469  0.24915650     0.98700
H2086       H  0.54504913  0.20698448  0.29277327     0.28500
O2087       O  0.53235527  0.21974442  0.28003812    -1.02400
H2088       H  0.95533422  0.20852777  0.20696100     0.28500
O2089       O  0.96843050  0.22098870  0.21962121    -1.04900
O2090       O  0.50453762  0.30059205  0.33673647    -0.82100
O2091       O  0.49762283  0.30157058  0.16340181    -0.81700
O2092       O  0.58981333  0.25254649  0.29767578    -0.80100
O2093       O  0.91495033  0.25141569  0.30233074    -0.83500
O2094       O  0.91165432  0.25204184  0.20177687    -0.81300
O2095       O  0.58698390  0.24804668  0.19726573    -0.80000
O2096       O  0.55185255  0.33730621  0.24885893    -0.81500
O2097       O  0.95156595  0.33895281  0.25169921    -0.83400
O2098       O  0.58909406  0.30042603  0.24903572    -0.80100
O2099       O  0.91392316  0.30267994  0.25211099    -0.82800
O2100       O  0.55326023  0.25094850  0.33533394    -0.78600
O2101       O  0.54885895  0.25060484  0.16122697    -0.78600
O2102       O  0.94863067  0.25176036  0.16455854    -0.78200
O2103       O  0.95316944  0.25144337  0.33822414    -0.81700
O2104       O  0.50490806  0.33755102  0.30023324    -0.81200
O2105       O  0.49744415  0.33806237  0.20051536    -0.79500
Eu2106     Eu  0.50231383  0.25098006  0.31150676     2.39800
Eu2107     Eu  0.49945992  0.25154717  0.18822489     2.39600
Eu2108     Eu  0.56315310  0.25070984  0.24832280     2.38400
Eu2109     Eu  0.93812924  0.25201641  0.25135013     2.39900
Eu2110     Eu  0.50130810  0.31280185  0.25013074     2.39800
O2111       O  0.96905036  0.28251540  0.21975412    -0.93900
O2112       O  0.53296223  0.28161022  0.28003553    -0.92800
C2113       C  0.50562925  0.32864528  0.32833294     1.01300
C2114       C  0.49642841  0.32948792  0.17236498     1.00000
C2115       C  0.58133536  0.25186305  0.32590161     0.99400
C2116       C  0.92470364  0.25154635  0.33017497     1.01400
C2117       C  0.92043892  0.25147261  0.17360222     1.00300
C2118       C  0.57728901  0.24873812  0.16937300     0.99200
C2119       C  0.58009302  0.32838884  0.24899952     0.99200
C2120       C  0.92313578  0.33063187  0.25221822     1.01800
H2121       H  0.54448672  0.29494923  0.20484517     0.29200
O2122       O  0.53194717  0.28235753  0.21795233    -1.06100
H2123       H  0.95818137  0.29533639  0.29508536     0.31300
O2124       O  0.97036110  0.28249585  0.28188516    -1.08600
O2125       O  0.83598335  0.50034660  0.19889482    -0.81200
O2126       O  0.66175202  0.50230349  0.20059007    -0.82700
O2127       O  0.74854718  0.44918914  0.16368823    -0.79800
O2128       O  0.74933903  0.04920007  0.16231561    -0.78100
O2129       O  0.75088107  0.08637451  0.19881796    -0.79900
O2130       O  0.74911569  0.41261340  0.20072281    -0.80900
O2131       O  0.69854462  0.49950459  0.16324158    -0.82200
O2132       O  0.79833920  0.49855212  0.16240877    -0.82500
Eu2133     Eu  0.74871907  0.49957948  0.18829452     2.39200
O2134       O  0.71803870  0.03130592  0.21894044    -0.90000
O2135       O  0.78026448  0.46934869  0.21939320    -0.93600
C2136       C  0.82667235  0.49949845  0.17088943     1.01100
C2137       C  0.67045449  0.50122578  0.17242562     1.00900
C2138       C  0.74914914  0.42115530  0.17245332     1.00900
C2139       C  0.75067727  0.07731651  0.17073905     0.98700
H2140       H  0.70444316  0.45651328  0.20724187     0.28500
O2141       O  0.71748333  0.46922093  0.21972635    -1.02400
H2142       H  0.79335004  0.04353732  0.20544570     0.28500
O2143       O  0.78054260  0.03098806  0.21833766    -1.04900
O2144       O  0.66264699  0.50191687  0.30141663    -0.82100
O2145       O  0.83698130  0.49891341  0.29992898    -0.81700
O2146       O  0.69815458  0.41490195  0.25276040    -0.80100
O2147       O  0.69982594  0.08736538  0.24926593    -0.83500
O2148       O  0.79963448  0.08759985  0.25096478    -0.81300
O2149       O  0.79998998  0.41417870  0.24918824    -0.80000
O2150       O  0.74908346  0.45085712  0.33780338    -0.81500
O2151       O  0.75054338  0.05088940  0.33679107    -0.83400
O2152       O  0.74973066  0.41382801  0.30114136    -0.80100
O2153       O  0.74990636  0.08726661  0.29937605    -0.82800
O2154       O  0.66092230  0.45179841  0.25123387    -0.78600
O2155       O  0.83709795  0.45104799  0.24812613    -0.78600
O2156       O  0.83721707  0.05121911  0.25033863    -0.78200
O2157       O  0.66218696  0.05111977  0.24981718    -0.81700
O2158       O  0.70027722  0.50091975  0.33794099    -0.81200
O2159       O  0.79994896  0.49958675  0.33704303    -0.79500
Eu2160     Eu  0.68708195  0.50106771  0.25070598     2.39800
Eu2161     Eu  0.81184870  0.50073230  0.24965665     2.39600
Eu2162     Eu  0.74917248  0.43865033  0.25065213     2.38400
Eu2163     Eu  0.74980584  0.06197347  0.24949737     2.39900
Eu2164     Eu  0.74989179  0.50065621  0.31198901     2.39800
O2165       O  0.78109060  0.03160497  0.28090441    -0.93900
O2166       O  0.71815221  0.46984125  0.28159304    -0.92800
C2167       C  0.67195482  0.50183564  0.32944543     1.01300
C2168       C  0.82814056  0.49852112  0.32810617     1.00000
C2169       C  0.66991636  0.42389098  0.25249320     0.99400
C2170       C  0.67143451  0.07899820  0.24903904     1.01400
C2171       C  0.82800061  0.07919710  0.25117318     1.00300
C2172       C  0.82828086  0.42303366  0.24804082     0.99200
C2173       C  0.74919567  0.42274832  0.32926961     0.99200
C2174       C  0.75001793  0.07879156  0.32759059     1.01800
H2175       H  0.79366798  0.45687953  0.29357089     0.29200
O2176       O  0.78084939  0.46967413  0.28094559    -1.06100
H2177       H  0.70605089  0.04471722  0.29400665     0.31300
O2178       O  0.71866476  0.03183682  0.28128855    -1.08600
O2179       O  0.69906315  0.16350541  0.49838650    -0.81200
O2180       O  0.70328205  0.33731928  0.49978970    -0.82700
O2181       O  0.66178785  0.25083376  0.04752959    -0.79800
O2182       O  0.66454830  0.25216823  0.44737115    -0.78100
O2183       O  0.70242735  0.25436156  0.41102798    -0.79900
O2184       O  0.69842304  0.24807018  0.08507306    -0.80900
O2185       O  0.66513415  0.30150375  0.49892139    -0.82200
O2186       O  0.66228133  0.20066646  0.49847525    -0.82500
Eu2187     Eu  0.68852115  0.25052259  0.49809013     2.39200
O2188       O  0.72113821  0.28150163  0.46849020    -0.90000
O2189       O  0.71843923  0.21858679  0.02943551    -0.93600
C2190       C  0.67087961  0.17251705  0.49843795     1.01100
C2191       C  0.67476248  0.32930946  0.49976171     1.00900
C2192       C  0.67033762  0.24966345  0.07574469     1.00900
C2193       C  0.67401489  0.25399690  0.41949166     0.94300
H2194       H  0.70697046  0.29274932  0.04259479     0.28500
O2195       O  0.71993856  0.28007020  0.02994047    -1.02400
H2196       H  0.70659024  0.20720513  0.45358778     0.28500
O2197       O  0.71937320  0.21945670  0.46679798    -1.04900
O2198       O  0.80443027  0.33406940  0.50271576    -0.82100
O2199       O  0.79865321  0.16131158  0.49889784    -0.81700
O2200       O  0.74774377  0.29815997  0.08762307    -0.80100
O2201       O  0.75377841  0.30109362  0.41328634    -0.83500
O2202       O  0.75214424  0.20127830  0.41083278    -0.81300
O2203       O  0.74857032  0.19810601  0.08589144    -0.80000
O2204       O  0.83733410  0.24851453  0.05149045    -0.81500
O2205       O  0.83972780  0.24680365  0.45137253    -0.83400
O2206       O  0.79933331  0.24968028  0.08764132    -0.80100
O2207       O  0.80316389  0.24952452  0.41386804    -0.82800
O2208       O  0.74971187  0.33524455  0.05117012    -0.78600
O2209       O  0.74842285  0.16196475  0.04831127    -0.78600
O2210       O  0.75160610  0.16411198  0.44748288    -0.78200
O2211       O  0.75402718  0.33726176  0.45080873    -0.81700
O2212       O  0.84073805  0.29642195  0.50083398    -0.81200
O2213       O  0.83702481  0.19693006  0.49986516    -0.79500
Eu2214     Eu  0.75283852  0.31096316  0.50050263     2.39800
Eu2215     Eu  0.74950253  0.18792189  0.49835481     2.39600
Eu2216     Eu  0.74957908  0.24848970  0.06145885     2.38400
Eu2217     Eu  0.75208505  0.25063546  0.43738102     2.39900
Eu2218     Eu  0.81335158  0.24769645  0.50072024     2.39800
O2219       O  0.78187245  0.21852901  0.46847663    -0.93900
O2220       O  0.78244044  0.27920045  0.03186270    -0.92800
C2221       C  0.83254586  0.32456803  0.50219150     1.01300
C2222       C  0.82713596  0.16924654  0.49957013     1.00000
C2223       C  0.74772288  0.32633335  0.07925734     0.99400
C2224       C  0.75436193  0.32896592  0.42248767     1.01400
C2225       C  0.75245453  0.17317677  0.41942373     1.00300
C2226       C  0.74811942  0.17022185  0.07662299     0.99200
C2227       C  0.82779598  0.24981694  0.07938658     0.99200
C2228       C  0.83123669  0.24768943  0.42316549     1.01800
H2229       H  0.79336927  0.20419556  0.04378728     0.29200
O2230       O  0.78101582  0.21721514  0.03094387    -1.06100
H2231       H  0.79722052  0.29254239  0.45713009     0.31300
O2232       O  0.78380882  0.27999247  0.46940620    -1.08600
C2233       C  0.75155665  0.10078131  0.14634504    -0.07200
C2234       C  0.73386767  0.09619972  0.11986678    -0.18300
C2235       C  0.73166553  0.11854877  0.09714541     0.10000
C2236       C  0.74819436  0.14609491  0.10032845    -0.07100
C2237       C  0.76633316  0.15043197  0.12653206    -0.18300
C2238       C  0.76855718  0.12808609  0.14922161     0.10100
S2239       S  0.70588582  0.11113689  0.06571736    -0.33300
S2240       S  0.79474373  0.13530701  0.18036427    -0.33300
H2241       H  0.80535381  0.10514783  0.18241475     0.28100
H2242       H  0.69461144  0.14107048  0.06390489     0.28100
H2243       H  0.72059862  0.07548576  0.11738158     0.18600
H2244       H  0.77968184  0.17110759  0.12896240     0.18700
C2245       C  0.74930123  0.39703156  0.14846239    -0.07200
C2246       C  0.73570895  0.36872983  0.15498207    -0.18300
C2247       C  0.73380989  0.34562398  0.13293350     0.10000
C2248       C  0.74619429  0.35041495  0.10331786    -0.07100
C2249       C  0.75893282  0.37903793  0.09666152    -0.18300
C2250       C  0.76160283  0.40176602  0.11886485     0.10100
S2251       S  0.71378230  0.31141909  0.14389978    -0.33300
S2252       S  0.78318921  0.43518411  0.10830980    -0.33300
H2253       H  0.79934433  0.43675630  0.13613421     0.28100
H2254       H  0.69794359  0.30854033  0.11603710     0.28100
H2255       H  0.72571166  0.36474561  0.17730887     0.18600
H2256       H  0.76816572  0.38348540  0.07415337     0.18700
C2257       C  0.74960084  0.39890049  0.35333443    -0.07200
C2258       C  0.76745359  0.37273605  0.34838851    -0.18300
C2259       C  0.77027830  0.35009729  0.37071658     0.10000
C2260       C  0.75454677  0.35320366  0.39887329    -0.07100
C2261       C  0.73677937  0.37941744  0.40389481    -0.18300
C2262       C  0.73357410  0.40183554  0.38135064     0.10100
S2263       S  0.79536313  0.31854535  0.36213460    -0.33300
S2264       S  0.70682860  0.43225338  0.38901611    -0.33300
H2265       H  0.69595296  0.43455451  0.35884227     0.28100
H2266       H  0.80721055  0.31590347  0.39193108     0.28100
H2267       H  0.78005643  0.37022938  0.32717166     0.18600
H2268       H  0.72404232  0.38180435  0.42505113     0.18700
C2269       C  0.74975682  0.10288875  0.35108329    -0.07200
C2270       C  0.77002972  0.10043171  0.37588852    -0.18300
C2271       C  0.77238256  0.12358231  0.39769706     0.10000
C2272       C  0.75327889  0.14951702  0.39540953    -0.07100
C2273       C  0.73311781  0.15205485  0.37048492    -0.18300
C2274       C  0.73085157  0.12894615  0.34858826     0.10100
S2275       S  0.80139689  0.11933866  0.42686444    -0.33300
S2276       S  0.70226407  0.13339651  0.31900141    -0.33300
H2277       H  0.69437895  0.10240668  0.31738696     0.28100
H2278       H  0.80835096  0.15048253  0.42919747     0.28100
H2279       H  0.78498644  0.08079855  0.37769702     0.18600
H2280       H  0.71814201  0.17167012  0.36868565     0.18700
C2281       C  0.89589480  0.15065185  0.24815101    -0.07200
C2282       C  0.87102638  0.15279618  0.26846764    -0.18300
C2283       C  0.84880424  0.12977415  0.27030340     0.10000
C2284       C  0.85151314  0.10358551  0.25159739    -0.07100
C2285       C  0.87600278  0.10182109  0.23081429    -0.18300
C2286       C  0.89747552  0.12541395  0.22819316     0.10100
S2287       S  0.81811079  0.13504089  0.29755035    -0.33300
S2288       S  0.92448678  0.12327044  0.19707054    -0.33300
H2289       H  0.92534344  0.15478066  0.19155612     0.28100
H2290       H  0.81610251  0.10425146  0.30597524     0.28100
H2291       H  0.86927936  0.17222804  0.28359893     0.18600
H2292       H  0.87750688  0.08262127  0.21535899     0.18700
C2293       C  0.89919012  0.35468674  0.25188396    -0.07200
C2294       C  0.87161183  0.34876070  0.23624575    -0.18300
C2295       C  0.84867243  0.37086233  0.23343218     0.10000
C2296       C  0.85262064  0.39951922  0.24754930    -0.07100
C2297       C  0.88034688  0.40566633  0.26275961    -0.18300
C2298       C  0.90344435  0.38372954  0.26522754     0.10100
S2299       S  0.81592280  0.36151769  0.20995161    -0.33300
S2300       S  0.93696121  0.39415950  0.28689275    -0.33300
H2301       H  0.93903442  0.36608770  0.30218372     0.28100
H2302       H  0.81355751  0.39056561  0.19665923     0.28100
H2303       H  0.86828902  0.32701492  0.22508108     0.18600
H2304       H  0.88373100  0.42749807  0.27375710     0.18700
C2305       C  0.60218457  0.14880089  0.25169932    -0.07200
C2306       C  0.63019759  0.15420323  0.23677788    -0.18300
C2307       C  0.65252838  0.13155492  0.23423145     0.10000
C2308       C  0.64771589  0.10306145  0.24849751    -0.07100
C2309       C  0.61998162  0.09788099  0.26405157    -0.18300
C2310       C  0.59751558  0.12045491  0.26618525     0.10100
S2311       S  0.68549985  0.14002248  0.21069316    -0.33300
S2312       S  0.56478413  0.11243311  0.28994433    -0.33300
H2313       H  0.56393599  0.14156914  0.30326617     0.28100
H2314       H  0.68688825  0.11097782  0.19727549     0.28100
H2315       H  0.63439317  0.17597940  0.22606702     0.18600
H2316       H  0.61620813  0.07644733  0.27569549     0.18700
C2317       C  0.60373110  0.35221564  0.24910121    -0.07200
C2318       C  0.62413232  0.35393948  0.27384891    -0.18300
C2319       C  0.64530145  0.37778958  0.27614464     0.10000
C2320       C  0.64617442  0.40025044  0.25308510    -0.07100
C2321       C  0.62558847  0.39865031  0.22851788    -0.18300
C2322       C  0.60489540  0.37450678  0.22596247     0.10100
S2323       S  0.66999147  0.37872316  0.30931574    -0.33300
S2324       S  0.58202639  0.37219341  0.19172192    -0.33300
H2325       H  0.58166361  0.34024131  0.19019994     0.28100
H2326       H  0.67350611  0.41049267  0.31030186     0.28100
H2327       H  0.62305948  0.33702494  0.29182915     0.18600
H2328       H  0.62667022  0.41550379  0.21046020     0.18700
C2329       C  0.89657067  0.25026956  0.14976090    -0.07200
C2330       C  0.87033191  0.26854142  0.15288294    -0.18300
C2331       C  0.84791178  0.26953411  0.12999633     0.10000
C2332       C  0.85133420  0.25123824  0.10360461    -0.07100
C2333       C  0.87769124  0.23315509  0.10045691    -0.18300
C2334       C  0.90004108  0.23215634  0.12329312     0.10100
S2335       S  0.81652119  0.29586207  0.13516873    -0.33300
S2336       S  0.93150039  0.20599736  0.11793402    -0.33300
H2337       H  0.93207756  0.19622882  0.14854497     0.28100
H2338       H  0.81493182  0.30455621  0.10427194     0.28100
H2339       H  0.86777648  0.28293937  0.17282388     0.18600
H2340       H  0.88042026  0.21884713  0.08047395     0.18700
C2341       C  0.60047443  0.24790512  0.14486059    -0.07200
C2342       C  0.60191305  0.27242463  0.12440537    -0.18300
C2343       C  0.62468837  0.27386576  0.10183930     0.10000
C2344       C  0.64628880  0.25000254  0.09935086    -0.07100
C2345       C  0.64478548  0.22546334  0.11973389    -0.18300
C2346       C  0.62176104  0.22384221  0.14197736     0.10100
S2347       S  0.62566691  0.30729310  0.07791792    -0.33300
S2348       S  0.61970210  0.18965467  0.16454327    -0.33300
H2349       H  0.58777693  0.19043341  0.16955793     0.28100
H2350       H  0.65768252  0.30772343  0.07359844     0.28100
H2351       H  0.58569360  0.29101215  0.12659779     0.18600
H2352       H  0.66108516  0.20692519  0.11763844     0.18700
C2353       C  0.60553014  0.25174002  0.34928895    -0.07200
C2354       C  0.62730404  0.27530335  0.34947928    -0.18300
C2355       C  0.64952684  0.27717566  0.37255191     0.10000
C2356       C  0.65038206  0.25460173  0.39551589    -0.07100
C2357       C  0.62864189  0.23107207  0.39520830    -0.18300
C2358       C  0.60648136  0.22920237  0.37222958     0.10100
S2359       S  0.67512596  0.30948901  0.37221192    -0.33300
S2360       S  0.58083863  0.19690554  0.37283627    -0.33300
H2361       H  0.57808212  0.19417173  0.34093706     0.28100
H2362       H  0.67794002  0.31184541  0.40414490     0.28100
H2363       H  0.62636695  0.29285251  0.33211230     0.18600
H2364       H  0.62949246  0.21349684  0.41256573     0.18700
C2365       C  0.90136060  0.25108548  0.35449654    -0.07200
C2366       C  0.87478964  0.23366323  0.34964270    -0.18300
C2367       C  0.85203903  0.23136212  0.37193554     0.10000
C2368       C  0.85553685  0.24721345  0.39978612    -0.07100
C2369       C  0.88232931  0.26427820  0.40491156    -0.18300
C2370       C  0.90507771  0.26672433  0.38250960     0.10100
S2371       S  0.81981225  0.20683987  0.36378324    -0.33300
S2372       S  0.93719807  0.29147089  0.39058759    -0.33300
H2373       H  0.93905280  0.30358752  0.36088449     0.28100
H2374       H  0.81769928  0.19521089  0.39364304     0.28100
H2375       H  0.87201617  0.22108219  0.32852170     0.18600
H2376       H  0.88501700  0.27681055  0.42607029     0.18700
C2377       C  0.85698308  0.34775534  0.00261771    -0.07200
C2378       C  0.88178001  0.34493263  0.48198560    -0.18300
C2379       C  0.90411250  0.36776754  0.47946694     0.10000
C2380       C  0.90141814  0.39431118  0.99869661    -0.07100
C2381       C  0.87804165  0.39560389  0.02066177    -0.18300
C2382       C  0.85643707  0.37229693  0.02337503     0.10100
S2383       S  0.93389023  0.36255354  0.45119555    -0.33300
S2384       S  0.83024161  0.37421070  0.05518063    -0.33300
H2385       H  0.82747328  0.34260693  0.05926696     0.28100
H2386       H  0.93672087  0.39349615  0.44362230     0.28100
H2387       H  0.88305558  0.32534331  0.46701118     0.18600
H2388       H  0.87736645  0.41436788  0.03671148     0.18700
C2389       C  0.85051166  0.14522391  0.99982011    -0.07200
C2390       C  0.87479340  0.14679177  0.47923117    -0.18300
C2391       C  0.89643813  0.12348885  0.47705026     0.10000
C2392       C  0.89482936  0.09863447  0.99686044    -0.07100
C2393       C  0.86983923  0.09629907  0.01700190    -0.18300
C2394       C  0.84769107  0.11927684  0.01871599     0.10100
S2395       S  0.92477500  0.12646400  0.44724885    -0.33300
S2396       S  0.81720876  0.11467424  0.04633154    -0.33300
H2397       H  0.81607706  0.14551804  0.05477050     0.28100
H2398       H  0.92566300  0.09513662  0.44074087     0.28100
H2399       H  0.87653101  0.16613541  0.46395994     0.18600
H2400       H  0.86807290  0.07690924  0.03219894     0.18700
C2401       C  0.65059598  0.35312057  0.00062359    -0.07200
C2402       C  0.62363198  0.34871732  0.48451815    -0.18300
C2403       C  0.60112633  0.37125739  0.48257928     0.10000
C2404       C  0.60512263  0.39931891  0.99691182    -0.07100
C2405       C  0.63384328  0.40508531  0.01038017    -0.18300
C2406       C  0.65584894  0.38207141  0.01375592     0.10100
S2407       S  0.56764731  0.36203609  0.46062389    -0.33300
S2408       S  0.68851179  0.39027508  0.03774081    -0.33300
H2409       H  0.68815577  0.36171028  0.05230062     0.28100
H2410       H  0.56630320  0.39051133  0.44599967     0.28100
H2411       H  0.61969384  0.32718999  0.47310611     0.18600
H2412       H  0.63868465  0.42729820  0.01976939     0.18700
C2413       C  0.64709936  0.14841889  0.99906015    -0.07200
C2414       C  0.62225106  0.15181371  0.01925798    -0.18300
C2415       C  0.59988812  0.12907817  0.02234507     0.10000
C2416       C  0.60168940  0.10259039  0.00411600    -0.07100
C2417       C  0.62713108  0.09867547  0.48584259    -0.18300
C2418       C  0.64962816  0.12117110  0.48269771     0.10100
S2419       S  0.57089895  0.13452194  0.05124052    -0.33300
S2420       S  0.68049844  0.11369029  0.45616235    -0.33300
H2421       H  0.68213266  0.14362699  0.44493040     0.28100
H2422       H  0.56792285  0.10357302  0.05880798     0.28100
H2423       H  0.62083928  0.17187578  0.03357285     0.18600
H2424       H  0.62928190  0.07799296  0.47254236     0.18700
C2425       C  0.89806746  0.00027019  0.39743106    -0.07200
C2426       C  0.87092353  0.48344907  0.40223298    -0.18300
C2427       C  0.84819474  0.48158094  0.37975256     0.10000
C2428       C  0.85219561  0.99752587  0.35184156    -0.07100
C2429       C  0.87932367  0.01407391  0.34698658    -0.18300
C2430       C  0.90203976  0.01595226  0.36944588     0.10100
S2431       S  0.81553468  0.45747871  0.38764718    -0.33300
S2432       S  0.93461701  0.04002346  0.36129361    -0.33300
H2433       H  0.93628587  0.05245355  0.39086160     0.28100
H2434       H  0.81354881  0.44574729  0.35780372     0.28100
H2435       H  0.86778150  0.47092285  0.42333869     0.18600
H2436       H  0.88239930  0.02663330  0.32588913     0.18700
C2437       C  0.60299320  0.99946492  0.39948851    -0.07200
C2438       C  0.62911421  0.01781063  0.40330924    -0.18300
C2439       C  0.65172176  0.01956054  0.38068687     0.10000
C2440       C  0.64841347  0.00222641  0.35363595    -0.07100
C2441       C  0.62250478  0.48365109  0.35001803    -0.18300
C2442       C  0.60014983  0.48160951  0.37279909     0.10100
S2443       S  0.68337074  0.04530424  0.38733309    -0.33300
S2444       S  0.56974090  0.45424615  0.36723745    -0.33300
H2445       H  0.56888823  0.44477929  0.39795386     0.28100
H2446       H  0.68605705  0.05481107  0.35676642     0.28100
H2447       H  0.63148857  0.03164267  0.42367430     0.18600
H2448       H  0.62025329  0.46962460  0.32977564     0.18700
C2449       C  0.64646230  0.00152688  0.14890075    -0.07200
C2450       C  0.64673734  0.47863119  0.12664934    -0.18300
C2451       C  0.62356919  0.47682846  0.10466128     0.10000
C2452       C  0.60023514  0.99905673  0.10409467    -0.07100
C2453       C  0.59979168  0.02185643  0.12645713    -0.18300
C2454       C  0.62286988  0.02357548  0.14860506     0.10100
S2455       S  0.62405942  0.44454961  0.07937816    -0.33300
S2456       S  0.62187278  0.05533479  0.17468656    -0.33300
H2457       H  0.65395909  0.05855146  0.17726553     0.28100
H2458       H  0.59204364  0.44238584  0.07565063     0.28100
H2459       H  0.66453174  0.46136804  0.12710956     0.18600
H2460       H  0.58196121  0.03907315  0.12598856     0.18700
C2461       C  0.89621351  0.99526407  0.10151249    -0.07200
C2462       C  0.86954299  0.01253332  0.09651537    -0.18300
C2463       C  0.84677698  0.01494799  0.11887180     0.10000
C2464       C  0.85027623  0.99910933  0.14679018    -0.07100
C2465       C  0.87677732  0.48150837  0.15163756    -0.18300
C2466       C  0.89953052  0.47910245  0.12926519     0.10100
S2467       S  0.81496899  0.04010497  0.11097308    -0.33300
S2468       S  0.93126532  0.45385858  0.13703710    -0.33300
H2469       H  0.93344879  0.44286145  0.10693203     0.28100
H2470       H  0.81334615  0.05193227  0.14079600     0.28100
H2471       H  0.86696766  0.02530660  0.07547917     0.18600
H2472       H  0.87935926  0.46879866  0.17270995     0.18700
C2473       C  0.50043031  0.10263352  0.39804469    -0.07200
C2474       C  0.49209604  0.13250113  0.40607885    -0.18300
C2475       C  0.48932890  0.15566070  0.38424193     0.10000
C2476       C  0.49635735  0.14958922  0.35317111    -0.07100
C2477       C  0.00420338  0.11967446  0.34511383    -0.18300
C2478       C  0.00739518  0.09664159  0.36696070     0.10100
S2479       S  0.47487276  0.19169380  0.39771020    -0.33300
S2480       S  0.02309354  0.06110320  0.35356820    -0.33300
H2481       H  0.04427320  0.05852182  0.37776931     0.28100
H2482       H  0.45487386  0.19590708  0.37279295     0.28100
H2483       H  0.48697716  0.13792122  0.42964829     0.18600
H2484       H  0.00908773  0.11423187  0.32154701     0.18700
C2485       C  0.50042518  0.39840430  0.39774088    -0.07200
C2486       C  0.00973228  0.36876931  0.40543598    -0.18300
C2487       C  0.01406789  0.34620924  0.38323393     0.10000
C2488       C  0.50623207  0.35244341  0.35249890    -0.07100
C2489       C  0.49664362  0.38196019  0.34482070    -0.18300
C2490       C  0.49307062  0.40463707  0.36684878     0.10100
S2491       S  0.03253202  0.31098415  0.39433409    -0.33300
S2492       S  0.47689579  0.44012087  0.35390258    -0.33300
H2493       H  0.45535176  0.44168276  0.37787473     0.28100
H2494       H  0.03001279  0.31484947  0.42610709     0.28100
H2495       H  0.01434776  0.36334335  0.42897453     0.18600
H2496       H  0.49108864  0.38740299  0.32140210     0.18700
C2497       C  0.49488697  0.35361807  0.14881356    -0.07200
C2498       C  0.50890066  0.38168037  0.15514425    -0.18300
C2499       C  0.51185013  0.40409409  0.13275993     0.10000
C2500       C  0.49905633  0.39920727  0.10342628    -0.07100
C2501       C  0.98395291  0.37160322  0.09742883    -0.18300
C2502       C  0.98132856  0.34905732  0.11980750     0.10100
S2503       S  0.53407775  0.43731059  0.14273729    -0.33300
S2504       S  0.95866137  0.31599761  0.11044529    -0.33300
H2505       H  0.94446654  0.31421175  0.13930512     0.28100
H2506       H  0.54925364  0.43913612  0.11441908     0.28100
H2507       H  0.51886382  0.38580602  0.17741903     0.18600
H2508       H  0.97323760  0.36789094  0.07538615     0.18700
C2509       C  0.49915081  0.14956020  0.14701711    -0.07200
C2510       C  0.99364759  0.11924049  0.15580196    -0.18300
C2511       C  0.99144243  0.09568798  0.13441470     0.10000
C2512       C  0.49591773  0.10191700  0.10288210    -0.07100
C2513       C  0.50117990  0.13223040  0.09409599    -0.18300
C2514       C  0.50338964  0.15576998  0.11545232     0.10100
S2515       S  0.98141009  0.05873872  0.14927243    -0.33300
S2516       S  0.51328187  0.19264226  0.10035903    -0.33300
H2517       H  0.53793042  0.19677978  0.12077552     0.28100
H2518       H  0.95734587  0.05438452  0.12819678     0.28100
H2519       H  0.99026839  0.11368132  0.17967006     0.18600
H2520       H  0.50457534  0.13777819  0.07022728     0.18700
O2521       O  0.49735285  0.04943750  0.58745392    -0.81200
O2522       O  0.49959599  0.04984810  0.91346832    -0.82700
O2523       O  0.54870614  0.08760275  0.50384951    -0.79800
O2524       O  0.94689021  0.08433593  0.49795855    -0.78100
O2525       O  0.91037587  0.04677391  0.49927697    -0.79900
O2526       O  0.58641581  0.05127265  0.50361794    -0.80900
O2527       O  0.50042114  0.08673538  0.95003827    -0.82200
O2528       O  0.49572634  0.08626385  0.55089493    -0.82500
Eu2529     Eu  0.49844494  0.06161739  0.50059106     2.39200
O2530       O  0.96814574  0.03005592  0.96947430    -0.90000
O2531       O  0.52975953  0.03111150  0.53174725    -0.93600
C2532       C  0.49588480  0.07749506  0.57907497     1.01100
C2533       C  0.50039669  0.07795876  0.92183849     1.00900
C2534       C  0.57718180  0.07915114  0.50445351     1.00900
C2535       C  0.91877208  0.07488690  0.49795280     0.98700
H2536       H  0.54382498  0.04420085  0.95729704     0.28500
O2537       O  0.53102503  0.03133834  0.96987553    -1.02400
H2538       H  0.95363956  0.04221598  0.54363290     0.28500
O2539       O  0.96707621  0.03001635  0.53103329    -1.04900
O2540       O  0.50070425  0.44986722  0.91408876    -0.82100
O2541       O  0.49810829  0.45035636  0.58752862    -0.81700
O2542       O  0.58766709  0.00146359  0.95116784    -0.80100
O2543       O  0.91234728  0.99900297  0.94979143    -0.83500
O2544       O  0.91154266  0.99602730  0.54947352    -0.81300
O2545       O  0.58603465  0.99966233  0.55218243    -0.80000
O2546       O  0.55325688  0.41465129  0.49864378    -0.81500
O2547       O  0.95346646  0.41048538  0.49861261    -0.83400
O2548       O  0.58978762  0.45193725  0.49880959    -0.80100
O2549       O  0.91510531  0.44616883  0.49853053    -0.82800
O2550       O  0.55063257  0.99933653  0.91405777    -0.78600
O2551       O  0.54807222  0.00052865  0.58851173    -0.78600
O2552       O  0.94822719  0.99708319  0.58687805    -0.78200
O2553       O  0.95006768  0.99991119  0.91343184    -0.81700
O2554       O  0.50086140  0.41293112  0.95063133    -0.81200
O2555       O  0.50136937  0.41342313  0.55094973    -0.79500
Eu2556     Eu  0.50028687  0.99996990  0.93887406     2.39800
Eu2557     Eu  0.49861895  0.99969528  0.56207883     2.39600
Eu2558     Eu  0.56225271  0.00094382  0.50132676     2.38400
Eu2559     Eu  0.93743395  0.99783115  0.49976222     2.39900
Eu2560     Eu  0.50195384  0.43806089  0.50030670     2.39800
O2561       O  0.96897787  0.46757796  0.53094182    -0.93900
O2562       O  0.53211064  0.46955626  0.96965607    -0.92800
C2563       C  0.50034860  0.42175968  0.92250303     1.01300
C2564       C  0.49982295  0.42238771  0.57903539     1.00000
C2565       C  0.57884973  0.00002015  0.92306102     0.99400
C2566       C  0.92163415  0.99987822  0.92178719     1.01400
C2567       C  0.92009997  0.99577792  0.57769270     1.00300
C2568       C  0.57644684  0.99980039  0.58009221     0.99200
C2569       C  0.58146376  0.42373371  0.49779451     0.99200
C2570       C  0.92499566  0.41842981  0.49806355     1.01800
H2571       H  0.54449475  0.45673944  0.54493275     0.29200
O2572       O  0.53166285  0.46930556  0.53210990    -1.06100
H2573       H  0.95723353  0.45549058  0.95646462     0.31300
O2574       O  0.96970293  0.46829115  0.96940857    -1.08600
O2575       O  0.49840161  0.20150459  0.66309521    -0.81200
O2576       O  0.50065340  0.20091188  0.83730669    -0.82700
O2577       O  0.55031697  0.16433836  0.75046423    -0.79800
O2578       O  0.94870450  0.16496043  0.74854215    -0.78100
O2579       O  0.91188233  0.20209224  0.75122822    -0.79900
O2580       O  0.58787898  0.20080925  0.75039993    -0.80900
O2581       O  0.49683499  0.16446982  0.80046270    -0.82200
O2582       O  0.50008223  0.16454432  0.69952693    -0.82500
Eu2583     Eu  0.49976836  0.18928683  0.74993929     2.39200
O2584       O  0.96967799  0.22033970  0.78169003    -0.90000
O2585       O  0.53089927  0.21998441  0.71844240    -0.93600
C2586       C  0.49933380  0.17337561  0.67136740     1.01100
C2587       C  0.49770184  0.17301541  0.82872761     1.00900
C2588       C  0.57871336  0.17292445  0.75110166     1.00900
C2589       C  0.92043705  0.17400260  0.74936777     0.98700
H2590       H  0.54523209  0.20679466  0.79282562     0.28500
O2591       O  0.53252980  0.21955730  0.78010106    -1.02400
H2592       H  0.95549732  0.20840347  0.70714112     0.28500
O2593       O  0.96859294  0.22086746  0.71978606    -1.04900
O2594       O  0.50441276  0.29999599  0.83718543    -0.82100
O2595       O  0.49755214  0.30151859  0.66352818    -0.81700
O2596       O  0.58986284  0.25233101  0.79779056    -0.80100
O2597       O  0.91522865  0.25126426  0.80268826    -0.83500
O2598       O  0.91176408  0.25187627  0.70192701    -0.81300
O2599       O  0.58713363  0.24800094  0.69744304    -0.80000
O2600       O  0.55173873  0.33736555  0.74888635    -0.81500
O2601       O  0.95157623  0.33883023  0.75133117    -0.83400
O2602       O  0.58901901  0.30052289  0.74906549    -0.80100
O2603       O  0.91396815  0.30254354  0.75204297    -0.82800
O2604       O  0.55339103  0.25015089  0.83549349    -0.78600
O2605       O  0.54900900  0.25051876  0.66140288    -0.78600
O2606       O  0.94871321  0.25151751  0.66466840    -0.78200
O2607       O  0.95344652  0.25093987  0.83856442    -0.81700
O2608       O  0.50462137  0.33707058  0.80079154    -0.81200
O2609       O  0.49754181  0.33800215  0.70067300    -0.79500
Eu2610     Eu  0.50243175  0.25056493  0.81166656     2.39800
Eu2611     Eu  0.49955598  0.25144084  0.68833222     2.39600
Eu2612     Eu  0.56321329  0.25072418  0.74845211     2.38400
Eu2613     Eu  0.93821565  0.25181994  0.75154936     2.39900
Eu2614     Eu  0.50131641  0.31268234  0.75037184     2.39800
O2615       O  0.96916704  0.28231088  0.71999335    -0.93900
O2616       O  0.53299381  0.28146431  0.78029672    -0.92800
C2617       C  0.50533329  0.32807624  0.82888458     1.01300
C2618       C  0.49645460  0.32944534  0.67250462     1.00000
C2619       C  0.58144640  0.25126659  0.82601839     0.99400
C2620       C  0.92498589  0.25122912  0.83054510     1.01400
C2621       C  0.92052616  0.25125520  0.67374044     1.00300
C2622       C  0.57743988  0.24864668  0.66954920     0.99200
C2623       C  0.57998087  0.32847441  0.74896992     0.99200
C2624       C  0.92314786  0.33051624  0.75189039     1.01800
H2625       H  0.54448122  0.29493145  0.70500247     0.29200
O2626       O  0.53195886  0.28231534  0.71811102    -1.06100
H2627       H  0.95825454  0.29502720  0.79532235     0.31300
O2628       O  0.97046726  0.28221668  0.78211806    -1.08600
O2629       O  0.83565232  0.50027141  0.69861165    -0.81200
O2630       O  0.66154398  0.50264446  0.70047408    -0.82700
O2631       O  0.74841772  0.44916807  0.66362383    -0.79800
O2632       O  0.74888000  0.04911850  0.66213107    -0.78100
O2633       O  0.75076100  0.08625676  0.69866002    -0.79900
O2634       O  0.74890649  0.41259544  0.70064890    -0.80900
O2635       O  0.69829070  0.49943384  0.66311340    -0.82200
O2636       O  0.79798947  0.49858545  0.66212917    -0.82500
Eu2637     Eu  0.74848685  0.49958144  0.68817042     2.39200
O2638       O  0.71795388  0.03137909  0.71884942    -0.90000
O2639       O  0.78000443  0.46934667  0.71929534    -0.93600
C2640       C  0.82632308  0.49947562  0.67059957     1.01100
C2641       C  0.67021879  0.50135053  0.67231186     1.00900
C2642       C  0.74900279  0.42113419  0.67238150     1.00900
C2643       C  0.75033324  0.07721553  0.67057511     0.98700
H2644       H  0.70419990  0.45656782  0.70709577     0.28500
O2645       O  0.71725463  0.46924912  0.71960037    -1.02400
H2646       H  0.79326092  0.04342875  0.70529479     0.28500
O2647       O  0.78045175  0.03088290  0.71819994    -1.04900
O2648       O  0.66241566  0.50170916  0.80123350    -0.82100
O2649       O  0.83680252  0.49859922  0.79991990    -0.81700
O2650       O  0.69789214  0.41497961  0.75248586    -0.80100
O2651       O  0.69999692  0.08749404  0.74917514    -0.83500
O2652       O  0.79980110  0.08738470  0.75083994    -0.81300
O2653       O  0.79977111  0.41407238  0.74895806    -0.80000
O2654       O  0.74887235  0.45085358  0.83769857    -0.81500
O2655       O  0.75070163  0.05095122  0.83668204    -0.83400
O2656       O  0.74931266  0.41380734  0.80106021    -0.80100
O2657       O  0.75029863  0.08730502  0.79925036    -0.82800
O2658       O  0.66072788  0.45194372  0.75077411    -0.78600
O2659       O  0.83689886  0.45090412  0.74767246    -0.78600
O2660       O  0.83730597  0.05092679  0.75040470    -0.78200
O2661       O  0.66225030  0.05133753  0.74981839    -0.81700
O2662       O  0.70003690  0.50097320  0.83780135    -0.81200
O2663       O  0.79976314  0.49936265  0.83701065    -0.79500
Eu2664     Eu  0.68693840  0.50119258  0.75056392     2.39800
Eu2665     Eu  0.81172486  0.50059883  0.74953688     2.39600
Eu2666     Eu  0.74894157  0.43864386  0.75054969     2.38400
Eu2667     Eu  0.74985469  0.06193831  0.74939555     2.39900
Eu2668     Eu  0.74974127  0.50067421  0.81190855     2.39800
O2669       O  0.78104255  0.03150621  0.78082235    -0.93900
O2670       O  0.71798550  0.46994258  0.78144875    -0.92800
C2671       C  0.67171019  0.50169889  0.82926181     1.01300
C2672       C  0.82796120  0.49821151  0.82811343     1.00000
C2673       C  0.66967670  0.42402567  0.75205353     0.99400
C2674       C  0.67159094  0.07918466  0.74904282     1.01400
C2675       C  0.82815050  0.07892242  0.75119535     1.00300
C2676       C  0.82807677  0.42289248  0.74764962     0.99200
C2677       C  0.74888654  0.42273522  0.82919274     0.99200
C2678       C  0.75039647  0.07886300  0.82747721     1.01800
H2679       H  0.79346194  0.45676899  0.79346235     0.29200
O2680       O  0.78066740  0.46960755  0.78085739    -1.06100
H2681       H  0.70601144  0.04480044  0.79391448     0.31300
O2682       O  0.71858078  0.03189092  0.78118354    -1.08600
O2683       O  0.69934980  0.16318678  0.99820232    -0.81200
O2684       O  0.70272349  0.33691464  0.99982932    -0.82700
O2685       O  0.66194219  0.25074385  0.54764436    -0.79800
O2686       O  0.66474266  0.25187292  0.94730329    -0.78100
O2687       O  0.70263195  0.25395604  0.91096752    -0.79900
O2688       O  0.69857395  0.24770523  0.58517325    -0.80900
O2689       O  0.66472432  0.30096418  0.99928634    -0.82200
O2690       O  0.66251304  0.20031644  0.99865685    -0.82500
Eu2691     Eu  0.68854166  0.25026935  0.99810681     2.39200
O2692       O  0.72103463  0.28139875  0.96851595    -0.90000
O2693       O  0.71839115  0.21871974  0.52934054    -0.93600
C2694       C  0.67115832  0.17218719  0.99843579     1.01100
C2695       C  0.67422036  0.32880421  0.00005495     1.00900
C2696       C  0.67048595  0.24934662  0.57585786     1.00900
C2697       C  0.67422958  0.25359027  0.91942342     0.94300
H2698       H  0.70708166  0.29284242  0.54261662     0.28500
O2699       O  0.72003176  0.28015093  0.52997140    -1.02400
H2700       H  0.70677275  0.20697483  0.95360885     0.28500
O2701       O  0.71949021  0.21928512  0.96683737    -1.04900
O2702       O  0.80428468  0.33409198  0.00279042    -0.82100
O2703       O  0.79897608  0.16154975  0.99902623    -0.81700
O2704       O  0.74765480  0.29803782  0.58765311    -0.80100
O2705       O  0.75364835  0.30105949  0.91331492    -0.83500
O2706       O  0.75262096  0.20115684  0.91109461    -0.81300
O2707       O  0.74875007  0.19799924  0.58578482    -0.80000
O2708       O  0.83745590  0.24821832  0.55146925    -0.81500
O2709       O  0.83967036  0.24687404  0.95154759    -0.83400
O2710       O  0.79944883  0.24960310  0.58761607    -0.80100
O2711       O  0.80319422  0.24963642  0.91399371    -0.82800
O2712       O  0.74982136  0.33509220  0.55119462    -0.78600
O2713       O  0.74826085  0.16190691  0.54815879    -0.78600
O2714       O  0.75218637  0.16393742  0.94768413    -0.78200
O2715       O  0.75398351  0.33726639  0.95079834    -0.81700
O2716       O  0.84067588  0.29651907  0.00057991    -0.81200
O2717       O  0.83720282  0.19731303  0.99990863    -0.79500
Eu2718     Eu  0.75261794  0.31102038  0.00051184     2.39800
Eu2719     Eu  0.74967560  0.18787323  0.99846741     2.39600
Eu2720     Eu  0.74966469  0.24842012  0.56141882     2.38400
Eu2721     Eu  0.75213785  0.25060166  0.93748142     2.39900
Eu2722     Eu  0.81324922  0.24788772  0.00081164     2.39800
O2723       O  0.78193906  0.21858528  0.96860476    -0.93900
O2724       O  0.78260134  0.27904151  0.53180132    -0.92800
C2725       C  0.83241770  0.32462618  0.00207067     1.01300
C2726       C  0.82742541  0.16960198  0.99964992     1.00000
C2727       C  0.74768290  0.32620579  0.57927737     0.99400
C2728       C  0.75429046  0.32894638  0.92248203     1.01400
C2729       C  0.75307459  0.17304110  0.91963967     1.00300
C2730       C  0.74812696  0.17013101  0.57648361     0.99200
C2731       C  0.82792192  0.24960728  0.57937457     0.99200
C2732       C  0.83124333  0.24774160  0.92332980     1.01800
H2733       H  0.79330691  0.20404607  0.54363265     0.29200
O2734       O  0.78098705  0.21712200  0.53081358    -1.06100
H2735       H  0.79709013  0.29266609  0.95719148     0.31300
O2736       O  0.78369533  0.28011023  0.96947861    -1.08600
C2737       C  0.75118287  0.10068524  0.64620250    -0.07200
C2738       C  0.73313955  0.09636122  0.61991912    -0.18300
C2739       C  0.73110681  0.11871217  0.59717849     0.10000
C2740       C  0.74812644  0.14598653  0.60016775    -0.07100
C2741       C  0.76658563  0.15006310  0.62619120    -0.18300
C2742       C  0.76865272  0.12770803  0.64888464     0.10100
S2743       S  0.70495224  0.11168049  0.56596980    -0.33300
S2744       S  0.79527625  0.13447071  0.67975917    -0.33300
H2745       H  0.80557872  0.10418268  0.68145791     0.28100
H2746       H  0.69422555  0.14180753  0.56412754     0.28100
H2747       H  0.71951635  0.07585348  0.61759612     0.18600
H2748       H  0.78029556  0.17052401  0.62846524     0.18700
C2749       C  0.74917993  0.39699962  0.64839450    -0.07200
C2750       C  0.73586128  0.36859401  0.65503950    -0.18300
C2751       C  0.73389834  0.34548040  0.63300536     0.10000
C2752       C  0.74604960  0.35031995  0.60330735    -0.07100
C2753       C  0.75844848  0.37905385  0.59651785    -0.18300
C2754       C  0.76113939  0.40182278  0.61866857     0.10100
S2755       S  0.71393160  0.31126790  0.64404878    -0.33300
S2756       S  0.78225015  0.43544145  0.60779663    -0.33300
H2757       H  0.79867256  0.43729262  0.63544509     0.28100
H2758       H  0.69793671  0.30843368  0.61626153     0.28100
H2759       H  0.72606962  0.36454447  0.67744361     0.18600
H2760       H  0.76734308  0.38359764  0.57390707     0.18700
C2761       C  0.74938708  0.39889237  0.85329644    -0.07200
C2762       C  0.76692914  0.37254549  0.84816631    -0.18300
C2763       C  0.76988774  0.34993570  0.87052263     0.10000
C2764       C  0.75449383  0.35318567  0.89884836    -0.07100
C2765       C  0.73711323  0.37960741  0.90408029    -0.18300
C2766       C  0.73388600  0.40206307  0.88158270     0.10100
S2767       S  0.79479870  0.31828480  0.86180185    -0.33300
S2768       S  0.70784519  0.43293164  0.88974667    -0.33300
H2769       H  0.69597460  0.43483958  0.85991256     0.28100
H2770       H  0.80691153  0.31570465  0.89150198     0.28100
H2771       H  0.77923705  0.36989129  0.82679769     0.18600
H2772       H  0.72471370  0.38217508  0.92541154     0.18700
C2773       C  0.75036286  0.10300111  0.85097666    -0.07200
C2774       C  0.77037498  0.10024516  0.87597882    -0.18300
C2775       C  0.77279721  0.12331374  0.89789045     0.10000
C2776       C  0.75397697  0.14944519  0.89554254    -0.07100
C2777       C  0.73415957  0.15231742  0.87038907    -0.18300
C2778       C  0.73188934  0.12935575  0.84834443     0.10100
S2779       S  0.80156246  0.11875333  0.92724831    -0.33300
S2780       S  0.70386752  0.13446477  0.81833748    -0.33300
H2781       H  0.69529488  0.10366402  0.81659779     0.28100
H2782       H  0.80898348  0.14981685  0.92936742     0.28100
H2783       H  0.78507477  0.08043222  0.87787646     0.18600
H2784       H  0.71944560  0.17211666  0.86849135     0.18700
C2785       C  0.89611104  0.15035106  0.74840813    -0.07200
C2786       C  0.87118171  0.15249013  0.76866923    -0.18300
C2787       C  0.84894441  0.12946129  0.77044147     0.10000
C2788       C  0.85171670  0.10326258  0.75176203    -0.07100
C2789       C  0.87631521  0.10145319  0.73112036    -0.18300
C2790       C  0.89778169  0.12505295  0.72852967     0.10100
S2791       S  0.81808860  0.13473660  0.79750941    -0.33300
S2792       S  0.92494678  0.12277144  0.69755700    -0.33300
H2793       H  0.92613153  0.15427034  0.69205887     0.28100
H2794       H  0.81613684  0.10396084  0.80601096     0.28100
H2795       H  0.86937318  0.17193770  0.78377262     0.18600
H2796       H  0.87790196  0.08221556  0.71572106     0.18700
C2797       C  0.89918333  0.35460642  0.75139472    -0.07200
C2798       C  0.87138131  0.34846277  0.73621631    -0.18300
C2799       C  0.84838699  0.37053313  0.73337655     0.10000
C2800       C  0.85246273  0.39937198  0.74708443    -0.07100
C2801       C  0.88042449  0.40574274  0.76178676    -0.18300
C2802       C  0.90360769  0.38387565  0.76420276     0.10100
S2803       S  0.81542646  0.36093575  0.71029705    -0.33300
S2804       S  0.93748125  0.39471409  0.78513548    -0.33300
H2805       H  0.93953294  0.36703448  0.80113478     0.28100
H2806       H  0.81298061  0.38983090  0.69668076     0.28100
H2807       H  0.86791373  0.32655949  0.72541425     0.18600
H2808       H  0.88395957  0.42772396  0.77242899     0.18700
C2809       C  0.60268692  0.14916557  0.75220089    -0.07200
C2810       C  0.63035461  0.15428150  0.73657757    -0.18300
C2811       C  0.65258666  0.13156322  0.73393790     0.10000
C2812       C  0.64797111  0.10329565  0.74869550    -0.07100
C2813       C  0.62067110  0.09848564  0.76510415    -0.18300
C2814       C  0.59838506  0.12120451  0.76748368     0.10100
S2815       S  0.68523903  0.13966774  0.70983972    -0.33300
S2816       S  0.56653387  0.11404185  0.79266877    -0.33300
H2817       H  0.56566754  0.14375247  0.80462826     0.28100
H2818       H  0.68628590  0.11048950  0.69669383     0.28100
H2819       H  0.63436265  0.17589542  0.72548891     0.18600
H2820       H  0.61718578  0.07729218  0.77727013     0.18700
C2821       C  0.60357901  0.35231637  0.74895514    -0.07200
C2822       C  0.62341576  0.35467208  0.77409089    -0.18300
C2823       C  0.64450801  0.37858989  0.77624211     0.10000
C2824       C  0.64591574  0.40043167  0.75263216    -0.07100
C2825       C  0.62588309  0.39822540  0.72766216    -0.18300
C2826       C  0.60519789  0.37404566  0.72530899     0.10100
S2827       S  0.66844201  0.38044195  0.80991295    -0.33300
S2828       S  0.58283377  0.37097121  0.69080420    -0.33300
H2829       H  0.58293307  0.33899518  0.68981079     0.28100
H2830       H  0.67156539  0.41227198  0.81032279     0.28100
H2831       H  0.62194494  0.33821342  0.79246937     0.18600
H2832       H  0.62736041  0.41463763  0.70922546     0.18700
C2833       C  0.89663388  0.24999609  0.64990862    -0.07200
C2834       C  0.87060612  0.26859605  0.65277760    -0.18300
C2835       C  0.84822858  0.26960142  0.62983601     0.10000
C2836       C  0.85146070  0.25098562  0.60363785    -0.07100
C2837       C  0.87759250  0.23252762  0.60076868    -0.18300
C2838       C  0.89990752  0.23152453  0.62366623     0.10100
S2839       S  0.81714005  0.29633748  0.63469994    -0.33300
S2840       S  0.93110402  0.20498050  0.61866253    -0.33300
H2841       H  0.93202150  0.19594531  0.64948927     0.28100
H2842       H  0.81542881  0.30454335  0.60367389     0.28100
H2843       H  0.86820145  0.28324464  0.67255231     0.18600
H2844       H  0.88017031  0.21796331  0.58095455     0.18700
C2845       C  0.60061458  0.24770655  0.64502414    -0.07200
C2846       C  0.60209851  0.27218462  0.62453661    -0.18300
C2847       C  0.62483170  0.27353605  0.60192896     0.10000
C2848       C  0.64641041  0.24964564  0.59946172    -0.07100
C2849       C  0.64482004  0.22509042  0.61984105    -0.18300
C2850       C  0.62177243  0.22353868  0.64209029     0.10100
S2851       S  0.62568924  0.30688259  0.57787569    -0.33300
S2852       S  0.61946107  0.18929806  0.66455374    -0.33300
H2853       H  0.58760695  0.19042322  0.66994117     0.28100
H2854       H  0.65759851  0.30708644  0.57286235     0.28100
H2855       H  0.58591867  0.29080694  0.62671355     0.18600
H2856       H  0.66104790  0.20649259  0.61772968     0.18700
C2857       C  0.60571479  0.25108029  0.84932331    -0.07200
C2858       C  0.62761648  0.27453018  0.84929484    -0.18300
C2859       C  0.64988630  0.27645609  0.87230092     0.10000
C2860       C  0.65063501  0.25406648  0.89544149    -0.07100
C2861       C  0.62883562  0.23059374  0.89530948    -0.18300
C2862       C  0.60665642  0.22863812  0.87236392     0.10100
S2863       S  0.67566374  0.30862663  0.87167271    -0.33300
S2864       S  0.58105197  0.19631660  0.87311246    -0.33300
H2865       H  0.57817112  0.19356092  0.84122869     0.28100
H2866       H  0.67820136  0.31140964  0.90359535     0.28100
H2867       H  0.62673282  0.29197353  0.83181390     0.18600
H2868       H  0.62965925  0.21312394  0.91277656     0.18700
C2869       C  0.90164745  0.25078030  0.85489805    -0.07200
C2870       C  0.87471857  0.23400650  0.84970372    -0.18300
C2871       C  0.85186657  0.23180103  0.87189165     0.10000
C2872       C  0.85560354  0.24712995  0.90000854    -0.07100
C2873       C  0.88278656  0.26346457  0.90552024    -0.18300
C2874       C  0.90567444  0.26576465  0.88324425     0.10100
S2875       S  0.81917241  0.20807963  0.86319038    -0.33300
S2876       S  0.93844233  0.28942459  0.89201010    -0.33300
H2877       H  0.94038669  0.30250825  0.86273186     0.28100
H2878       H  0.81686848  0.19579458  0.89277567     0.28100
H2879       H  0.87171176  0.22184963  0.82836585     0.18600
H2880       H  0.88572117  0.27553910  0.92691551     0.18700
C2881       C  0.85716865  0.34769175  0.50260450    -0.07200
C2882       C  0.88083887  0.34597727  0.98105223    -0.18300
C2883       C  0.90310515  0.36890738  0.97888940     0.10000
C2884       C  0.90187699  0.39397592  0.49813194    -0.07100
C2885       C  0.87771882  0.39629121  0.51914215    -0.18300
C2886       C  0.85589451  0.37324854  0.52206750     0.10100
S2887       S  0.93224754  0.36480016  0.94978993    -0.33300
S2888       S  0.82833345  0.37700748  0.55249450    -0.33300
H2889       H  0.82615393  0.34571686  0.55879543     0.28100
H2890       H  0.93494456  0.39600906  0.94336167     0.28100
H2891       H  0.88161621  0.32705807  0.96519642     0.18600
H2892       H  0.87650452  0.41575158  0.53430173     0.18700
C2893       C  0.85013397  0.14476728  0.49971019    -0.07200
C2894       C  0.87519154  0.14730245  0.97937169    -0.18300
C2895       C  0.89681966  0.12398306  0.97714201     0.10000
C2896       C  0.89443006  0.09815202  0.49676757    -0.07100
C2897       C  0.86944218  0.09582357  0.51691278    -0.18300
C2898       C  0.84730241  0.11882423  0.51862888     0.10100
S2899       S  0.92495535  0.12687493  0.94714765    -0.33300
S2900       S  0.81682218  0.11422981  0.54625436    -0.33300
H2901       H  0.81534458  0.14512586  0.55442735     0.28100
H2902       H  0.92598991  0.09551240  0.94084016     0.28100
H2903       H  0.87690849  0.16665512  0.96410792     0.18600
H2904       H  0.86769069  0.07644171  0.53212347     0.18700
C2905       C  0.65128123  0.35372241  0.50009262    -0.07200
C2906       C  0.62225051  0.34751420  0.98652519    -0.18300
C2907       C  0.59965630  0.36997986  0.98466258     0.10000
C2908       C  0.60590906  0.39999300  0.49639460    -0.07100
C2909       C  0.63407713  0.40528713  0.51116263    -0.18300
C2910       C  0.65604371  0.38219376  0.51441899     0.10100
S2911       S  0.56508073  0.35974927  0.96490318    -0.33300
S2912       S  0.68800406  0.38959765  0.53958681    -0.33300
H2913       H  0.68762286  0.36044348  0.55290017     0.28100
H2914       H  0.56360210  0.38722611  0.94846275     0.28100
H2915       H  0.61778035  0.32554673  0.97621094     0.18600
H2916       H  0.63846821  0.42713394  0.52156849     0.18700
C2917       C  0.64679580  0.14873346  0.49915165    -0.07200
C2918       C  0.62127807  0.15283831  0.51838446    -0.18300
C2919       C  0.59890155  0.13014479  0.52172586     0.10000
C2920       C  0.60132070  0.10295248  0.50464490    -0.07100
C2921       C  0.62683746  0.09900851  0.98431473    -0.18300
C2922       C  0.64929223  0.12158346  0.98137721     0.10100
S2923       S  0.56911017  0.13658785  0.54957516    -0.33300
S2924       S  0.67921467  0.11532901  0.95350100    -0.33300
H2925       H  0.68038968  0.14573554  0.94355335     0.28100
H2926       H  0.56642649  0.10598230  0.55855065     0.28100
H2927       H  0.61934734  0.17344159  0.53183589     0.18600
H2928       H  0.62845334  0.07886931  0.97012633     0.18700
C2929       C  0.89787784  0.00016330  0.89758342    -0.07200
C2930       C  0.87040638  0.48404843  0.90271632    -0.18300
C2931       C  0.84767495  0.48205480  0.88023659     0.10000
C2932       C  0.85200219  0.99715207  0.85192927    -0.07100
C2933       C  0.87946744  0.01305618  0.84674944    -0.18300
C2934       C  0.90216348  0.01509332  0.86922257     0.10100
S2935       S  0.81454920  0.45879840  0.88874388    -0.33300
S2936       S  0.93510962  0.03848775  0.86057389    -0.33300
H2937       H  0.93676263  0.05170070  0.88979958     0.28100
H2938       H  0.81256616  0.44612616  0.85929266     0.28100
H2939       H  0.86698453  0.47209432  0.92411128     0.18600
H2940       H  0.88283267  0.02505687  0.82537044     0.18700
C2941       C  0.60290533  0.99935113  0.89941155    -0.07200
C2942       C  0.62828677  0.01881761  0.90248034    -0.18300
C2943       C  0.65082672  0.02051079  0.87977670     0.10000
C2944       C  0.64815179  0.00207243  0.85342042    -0.07100
C2945       C  0.62292701  0.48248016  0.85049936    -0.18300
C2946       C  0.60068220  0.48045052  0.87340660     0.10100
S2947       S  0.68160273  0.04750952  0.88534735    -0.33300
S2948       S  0.57130986  0.45178644  0.86902973    -0.33300
H2949       H  0.57015996  0.44397890  0.90020315     0.28100
H2950       H  0.68413695  0.05576206  0.85440023     0.28100
H2951       H  0.63012478  0.03347796  0.92230879     0.18600
H2952       H  0.62119179  0.46768083  0.83076912     0.18700
C2953       C  0.64617991  0.00162173  0.64881783    -0.07200
C2954       C  0.64579518  0.47806611  0.62727354    -0.18300
C2955       C  0.62253763  0.47623466  0.60537793     0.10000
C2956       C  0.59974000  0.99902538  0.60426811    -0.07100
C2957       C  0.59990986  0.02241468  0.62600221    -0.18300
C2958       C  0.62313709  0.02421509  0.64798938     0.10100
S2959       S  0.62232629  0.44336833  0.58083768    -0.33300
S2960       S  0.62306550  0.05673485  0.67313295    -0.33300
H2961       H  0.65520714  0.05892017  0.67604677     0.28100
H2962       H  0.59044851  0.44241728  0.57587796     0.28100
H2963       H  0.66315806  0.46039597  0.62818424     0.18600
H2964       H  0.58248817  0.04002079  0.62511146     0.18700
C2965       C  0.89575162  0.99497852  0.60112454    -0.07200
C2966       C  0.86920855  0.01246703  0.59622618    -0.18300
C2967       C  0.84650909  0.01500683  0.61864784     0.10000
C2968       C  0.84991841  0.99902656  0.64650169    -0.07100
C2969       C  0.87627151  0.48122390  0.65123340    -0.18300
C2970       C  0.89899172  0.47873051  0.62883811     0.10100
S2971       S  0.81493141  0.04050379  0.61091996    -0.33300
S2972       S  0.93061738  0.45334132  0.63657903    -0.33300
H2973       H  0.93284030  0.44244165  0.60644116     0.28100
H2974       H  0.81319257  0.05198283  0.64087149     0.28100
H2975       H  0.86671390  0.02533842  0.57524109     0.18600
H2976       H  0.87878292  0.46843967  0.67226918     0.18700
C2977       C  0.50058052  0.10196620  0.89760149    -0.07200
C2978       C  0.49223937  0.13181213  0.90566664    -0.18300
C2979       C  0.48928234  0.15492351  0.88383894     0.10000
C2980       C  0.49627144  0.14888740  0.85277682    -0.07100
C2981       C  0.00407634  0.11897797  0.84465906    -0.18300
C2982       C  0.00735718  0.09594246  0.86649140     0.10100
S2983       S  0.47440338  0.19079879  0.89722573    -0.33300
S2984       S  0.02289140  0.06036587  0.85301669    -0.33300
H2985       H  0.04414901  0.05769152  0.87713510     0.28100
H2986       H  0.45397488  0.19431360  0.87253341     0.28100
H2987       H  0.48718492  0.13723495  0.92924736     0.18600
H2988       H  0.00888223  0.11354863  0.82106194     0.18700
C2989       C  0.50008637  0.39785048  0.89834437    -0.07200
C2990       C  0.00931016  0.36821555  0.90610328    -0.18300
C2991       C  0.01342525  0.34554154  0.88395957     0.10000
C2992       C  0.50575099  0.35179696  0.85315729    -0.07100
C2993       C  0.49609825  0.38129454  0.84548417    -0.18300
C2994       C  0.49253450  0.40398051  0.86749210     0.10100
S2995       S  0.03124288  0.31005093  0.89528197    -0.33300
S2996       S  0.47599549  0.43931803  0.85461725    -0.33300
H2997       H  0.45455178  0.44065071  0.87869645     0.28100
H2998       H  0.02917998  0.31427312  0.92703989     0.28100
H2999       H  0.01397237  0.36286014  0.92964047     0.18600
H3000       H  0.49040900  0.38670461  0.82208828     0.18700
C3001       C  0.49498182  0.35357939  0.64891083    -0.07200
C3002       C  0.50947122  0.38146235  0.65497992    -0.18300
C3003       C  0.51249749  0.40376343  0.63246513     0.10000
C3004       C  0.49942356  0.39890353  0.60323509    -0.07100
C3005       C  0.98391774  0.37148558  0.59749414    -0.18300
C3006       C  0.98110171  0.34910621  0.62003400     0.10100
S3007       S  0.53500857  0.43687055  0.64220064    -0.33300
S3008       S  0.95770344  0.31643884  0.61109342    -0.33300
H3009       H  0.94394543  0.31491966  0.64017673     0.28100
H3010       H  0.54937554  0.43911141  0.61352938     0.28100
H3011       H  0.51968423  0.38553190  0.67715424     0.18600
H3012       H  0.97296099  0.36784315  0.57555674     0.18700
C3013       C  0.49894287  0.14931497  0.64717559    -0.07200
C3014       C  0.99332926  0.11901969  0.65603263    -0.18300
C3015       C  0.99072287  0.09545835  0.63469021     0.10000
C3016       C  0.49513298  0.10158592  0.60315964    -0.07100
C3017       C  0.50047956  0.13186926  0.59428994    -0.18300
C3018       C  0.50294057  0.15545224  0.61557243     0.10100
S3019       S  0.98018671  0.05866860  0.64961114    -0.33300
S3020       S  0.51271365  0.19228992  0.60029413    -0.33300
H3021       H  0.53715528  0.19687584  0.62085411     0.28100
H3022       H  0.95638814  0.05431284  0.62823960     0.28100
H3023       H  0.99012311  0.11350286  0.67993167     0.18600
H3024       H  0.50371060  0.13736951  0.57039163     0.18700
O3025       O  0.49828420  0.54984873  0.08711719    -0.81200
O3026       O  0.49955601  0.55044180  0.41375944    -0.82700
O3027       O  0.54910308  0.58739024  0.00340762    -0.79800
O3028       O  0.94725321  0.58462084  0.99771478    -0.78100
O3029       O  0.91060719  0.54720717  0.99960048    -0.79900
O3030       O  0.58673979  0.55096077  0.00296323    -0.80900
O3031       O  0.49997346  0.58722777  0.45042717    -0.82200
O3032       O  0.49633850  0.58664385  0.05055119    -0.82500
Eu3033     Eu  0.49872293  0.56162783  0.00039728     2.39200
O3034       O  0.96803391  0.53008675  0.46941473    -0.90000
O3035       O  0.53010350  0.53115908  0.03154278    -0.93600
C3036       C  0.49672987  0.57789040  0.07873542     1.01100
C3037       C  0.50014036  0.57854489  0.42220125     1.00900
C3038       C  0.57755427  0.57885269  0.00383144     1.00900
C3039       C  0.91909469  0.57528102  0.99798638     0.98700
H3040       H  0.54377335  0.54463812  0.45745025     0.28500
O3041       O  0.53099012  0.53167973  0.46994332    -1.02400
H3042       H  0.95401674  0.54256020  0.04373323     0.28500
O3043       O  0.96733003  0.53026144  0.03110330    -1.04900
O3044       O  0.50089370  0.95035637  0.41375113    -0.82100
O3045       O  0.49814513  0.95070830  0.08773725    -0.81700
O3046       O  0.58762835  0.50169603  0.45122711    -0.80100
O3047       O  0.91246220  0.49868037  0.44959919    -0.83500
O3048       O  0.91185341  0.49627403  0.04986066    -0.81300
O3049       O  0.58637718  0.49967382  0.05194728    -0.80000
O3050       O  0.55266297  0.91450498  0.99936197    -0.81500
O3051       O  0.95297171  0.91079240  0.99911174    -0.83400
O3052       O  0.58948414  0.95146088  0.99876020    -0.80100
O3053       O  0.91466875  0.94654706  0.99924060    -0.82800
O3054       O  0.55068708  0.49979727  0.41404105    -0.78600
O3055       O  0.54853469  0.50063559  0.08838323    -0.78600
O3056       O  0.94869131  0.49749619  0.08712172    -0.78200
O3057       O  0.95020964  0.50017704  0.41328369    -0.81700
O3058       O  0.50118976  0.91324688  0.45012193    -0.81200
O3059       O  0.50085505  0.91369875  0.05121469    -0.79500
Eu3060     Eu  0.50038241  0.50032139  0.43879841     2.39800
Eu3061     Eu  0.49898901  0.49996142  0.06209583     2.39600
Eu3062     Eu  0.56235211  0.50070175  0.00117233     2.38400
Eu3063     Eu  0.93739117  0.49810301  0.00000458     2.39900
Eu3064     Eu  0.50158770  0.93816388  0.00060850     2.39800
O3065       O  0.96897496  0.96800871  0.03119475    -0.93900
O3066       O  0.53224209  0.96983996  0.46960354    -0.92800
C3067       C  0.50061859  0.92220990  0.42202887     1.01300
C3068       C  0.49952883  0.92270972  0.07927667     1.00000
C3069       C  0.57888159  0.50030973  0.42308710     0.99400
C3070       C  0.92177387  0.49984540  0.42162690     1.01400
C3071       C  0.92053095  0.49610021  0.07804133     1.00300
C3072       C  0.57688914  0.49986848  0.07989512     0.99200
C3073       C  0.58092059  0.92331314  0.99819253     0.99200
C3074       C  0.92451280  0.91878739  0.99872578     1.01800
H3075       H  0.54448517  0.95668933  0.04507778     0.29200
O3076       O  0.53169007  0.96926729  0.03223473    -1.06100
H3077       H  0.95763479  0.95552495  0.45616640     0.31300
O3078       O  0.97002416  0.96830328  0.46920868    -1.08600
O3079       O  0.49843221  0.70169182  0.16295211    -0.81200
O3080       O  0.50068065  0.70152680  0.33745228    -0.82700
O3081       O  0.54988554  0.66423933  0.24999871    -0.79800
O3082       O  0.94852220  0.66513915  0.24837356    -0.78100
O3083       O  0.91175304  0.70231753  0.25106124    -0.79900
O3084       O  0.58754550  0.70058006  0.25020450    -0.80900
O3085       O  0.49678089  0.66498790  0.30070495    -0.82200
O3086       O  0.49993619  0.66474522  0.19940805    -0.82500
Eu3087     Eu  0.49955151  0.68945961  0.24989149     2.39200
O3088       O  0.96956975  0.72063740  0.28158684    -0.90000
O3089       O  0.53072389  0.72007483  0.21837405    -0.93600
C3090       C  0.49933918  0.67357636  0.17123530     1.01100
C3091       C  0.49771151  0.67361388  0.32896412     1.00900
C3092       C  0.57830310  0.67270273  0.25072243     1.00900
C3093       C  0.92027362  0.67422356  0.24917477     0.98700
H3094       H  0.54505884  0.70696786  0.29276020     0.28500
O3095       O  0.53236991  0.71973166  0.28002690    -1.02400
H3096       H  0.95533535  0.70851699  0.20694479     0.28500
O3097       O  0.96843143  0.72097848  0.21960607    -1.04900
O3098       O  0.50455521  0.80055034  0.33676098    -0.82100
O3099       O  0.49764263  0.80156485  0.16339498    -0.81700
O3100       O  0.58982618  0.75245801  0.29766199    -0.80100
O3101       O  0.91496823  0.75138123  0.30233220    -0.83500
O3102       O  0.91165557  0.75205045  0.20176351    -0.81300
O3103       O  0.58698038  0.74802772  0.19725627    -0.80000
O3104       O  0.55184571  0.83731138  0.24892731    -0.81500
O3105       O  0.95155901  0.83894104  0.25177362    -0.83400
O3106       O  0.58909072  0.80043426  0.24907705    -0.80100
O3107       O  0.91391500  0.80266508  0.25215771    -0.82800
O3108       O  0.55327671  0.75088116  0.33532399    -0.78600
O3109       O  0.54886289  0.75061745  0.16121254    -0.78600
O3110       O  0.94863686  0.75176365  0.16454804    -0.78200
O3111       O  0.95318976  0.75139417  0.33822381    -0.81700
O3112       O  0.50491105  0.83751573  0.30026723    -0.81200
O3113       O  0.49748767  0.83805209  0.20051466    -0.79500
Eu3114     Eu  0.50232804  0.75095792  0.31149932     2.39800
Eu3115     Eu  0.49946666  0.75154904  0.18821793     2.39600
Eu3116     Eu  0.56315874  0.75070843  0.24831608     2.38400
Eu3117     Eu  0.93812969  0.75200199  0.25134267     2.39900
Eu3118     Eu  0.50130694  0.81279655  0.25014271     2.39800
O3119       O  0.96904792  0.78251164  0.21975053    -0.93900
O3120       O  0.53297060  0.78160275  0.28003636    -0.92800
C3121       C  0.50563362  0.82860588  0.32836718     1.01300
C3122       C  0.49646494  0.82948024  0.17236266     1.00000
C3123       C  0.58135157  0.75176615  0.32588796     0.99400
C3124       C  0.92472356  0.75150128  0.33017624     1.01400
C3125       C  0.92044430  0.75148653  0.17358952     1.00300
C3126       C  0.57729134  0.74873458  0.16936190     0.99200
C3127       C  0.58008727  0.82839724  0.24907160     0.99200
C3128       C  0.92312820  0.83061742  0.25229295     1.01800
H3129       H  0.54449061  0.79495306  0.20485612     0.29200
O3130       O  0.53194833  0.78235836  0.21795644    -1.06100
H3131       H  0.95819418  0.79529660  0.29509456     0.31300
O3132       O  0.97037245  0.78246151  0.28188389    -1.08600
O3133       O  0.83595727  0.00037774  0.19886796    -0.81200
O3134       O  0.66174521  0.00226350  0.20063998    -0.82700
O3135       O  0.74849692  0.94917420  0.16374180    -0.79800
O3136       O  0.74936276  0.54921135  0.16232917    -0.78100
O3137       O  0.75091742  0.58637762  0.19883992    -0.79900
O3138       O  0.74908497  0.91259019  0.20076737    -0.80900
O3139       O  0.69852645  0.99945669  0.16328136    -0.82200
O3140       O  0.79830200  0.99855729  0.16239470    -0.82500
Eu3141     Eu  0.74870291  0.99957962  0.18831387     2.39200
O3142       O  0.71806435  0.53130175  0.21893235    -0.90000
O3143       O  0.78026772  0.96935318  0.21940064    -0.93600
C3144       C  0.82663664  0.99951774  0.17086634     1.01100
C3145       C  0.67043987  0.00117064  0.17247397     1.00900
C3146       C  0.74909602  0.92113793  0.17249949     1.00900
C3147       C  0.75070298  0.57732518  0.17075978     0.98700
H3148       H  0.70444542  0.95650631  0.20729548     0.28500
O3149       O  0.71749227  0.96922132  0.21976943    -1.02400
H3150       H  0.79337190  0.54352353  0.20545803     0.28500
O3151       O  0.78055395  0.53097273  0.21834342    -1.04900
O3152       O  0.66265818  0.00187933  0.30145607    -0.82100
O3153       O  0.83701190  0.99901568  0.29990350    -0.81700
O3154       O  0.69816395  0.91491046  0.25285605    -0.80100
O3155       O  0.69984603  0.58736707  0.24927352    -0.83500
O3156       O  0.79966001  0.58757910  0.25099891    -0.81300
O3157       O  0.80002935  0.91420418  0.24920164    -0.80000
O3158       O  0.74916423  0.95087710  0.33782571    -0.81500
O3159       O  0.75055949  0.55085909  0.33679732    -0.83400
O3160       O  0.74978838  0.91383865  0.30117312    -0.80100
O3161       O  0.74994644  0.58724266  0.29938887    -0.82800
O3162       O  0.66093019  0.95180543  0.25132865    -0.78600
O3163       O  0.83713486  0.95107954  0.24814244    -0.78600
O3164       O  0.83723235  0.55118809  0.25038788    -0.78200
O3165       O  0.66219704  0.55113073  0.24977843    -0.81700
O3166       O  0.70030284  0.00087207  0.33796341    -0.81200
O3167       O  0.79998803  0.99967378  0.33702662    -0.79500
Eu3168     Eu  0.68709045  0.00106691  0.25074644     2.39800
Eu3169     Eu  0.81185397  0.00075637  0.24964285     2.39600
Eu3170     Eu  0.74919501  0.93865305  0.25068352     2.38400
Eu3171     Eu  0.74982371  0.56196160  0.24950659     2.39900
Eu3172     Eu  0.74991824  0.00067770  0.31200085     2.39800
O3173       O  0.78109036  0.53158323  0.28092014    -0.93900
O3174       O  0.71818314  0.96985252  0.28162062    -0.92800
C3175       C  0.67197519  0.00177581  0.32948102     1.01300
C3176       C  0.82817785  0.99863025  0.32808240     1.00000
C3177       C  0.66992364  0.92389926  0.25260028     0.99400
C3178       C  0.67145171  0.57900796  0.24902781     1.01400
C3179       C  0.82802434  0.57916936  0.25122120     1.00300
C3180       C  0.82832017  0.92306358  0.24806197     0.99200
C3181       C  0.74927385  0.92276522  0.32929914     0.99200
C3182       C  0.75005144  0.57876271  0.32760124     1.01800
H3183       H  0.79371021  0.95691471  0.29358204     0.29200
O3184       O  0.78087885  0.96969678  0.28095618    -1.06100
H3185       H  0.70604531  0.54470977  0.29398555     0.31300
O3186       O  0.71865537  0.53182449  0.28126956    -1.08600
O3187       O  0.69902039  0.66352006  0.49838036    -0.81200
O3188       O  0.70328416  0.83732040  0.49978793    -0.82700
O3189       O  0.66179076  0.75085712  0.04751017    -0.79800
O3190       O  0.66455298  0.75215711  0.44737299    -0.78100
O3191       O  0.70243033  0.75428012  0.41102437    -0.79900
O3192       O  0.69842138  0.74807255  0.08505629    -0.80900
O3193       O  0.66514441  0.80150080  0.49897033    -0.82200
O3194       O  0.66225729  0.70070147  0.49849803    -0.82500
Eu3195     Eu  0.68853391  0.75052854  0.49809251     2.39200
O3196       O  0.72114414  0.78150281  0.46847603    -0.90000
O3197       O  0.71842990  0.71860190  0.02942966    -0.93600
C3198       C  0.67084138  0.67254981  0.49844608     1.01100
C3199       C  0.67476358  0.82930891  0.49979431     1.00900
C3200       C  0.67033765  0.74967585  0.07572624     1.00900
C3201       C  0.67401794  0.75393835  0.41948933     0.94300
H3202       H  0.70698630  0.79275521  0.04259175     0.28500
O3203       O  0.71995536  0.78007780  0.02993902    -1.02400
H3204       H  0.70658493  0.70720003  0.45359506     0.28500
O3205       O  0.71937281  0.71944991  0.46680272    -1.04900
O3206       O  0.80442789  0.83406209  0.50277388    -0.82100
O3207       O  0.79861968  0.66126527  0.49888577    -0.81700
O3208       O  0.74769764  0.79816311  0.08763122    -0.80100
O3209       O  0.75380244  0.80107502  0.41327934    -0.83500
O3210       O  0.75215524  0.70125573  0.41083367    -0.81300
O3211       O  0.74856313  0.69810736  0.08589546    -0.80000
O3212       O  0.83734519  0.74848962  0.05147935    -0.81500
O3213       O  0.83973053  0.74674249  0.45136923    -0.83400
O3214       O  0.79934761  0.74970862  0.08763368    -0.80100
O3215       O  0.80317176  0.74946467  0.41386123    -0.82800
O3216       O  0.74969412  0.83525147  0.05118380    -0.78600
O3217       O  0.74837245  0.66196146  0.04831959    -0.78600
O3218       O  0.75159048  0.66408968  0.44748500    -0.78200
O3219       O  0.75407581  0.83724071  0.45080450    -0.81700
O3220       O  0.84073225  0.79641378  0.50085647    -0.81200
O3221       O  0.83699660  0.69688024  0.49985059    -0.79500
Eu3222     Eu  0.75284637  0.81095367  0.50049997     2.39800
Eu3223     Eu  0.74948396  0.68790211  0.49836122     2.39600
Eu3224     Eu  0.74958199  0.74849078  0.06146077     2.38400
Eu3225     Eu  0.75209111  0.75061599  0.43737777     2.39900
Eu3226     Eu  0.81335424  0.74766969  0.50071480     2.39800
O3227       O  0.78185838  0.71850775  0.46848509    -0.93900
O3228       O  0.78245533  0.77918820  0.03186819    -0.92800
C3229       C  0.83254236  0.82456138  0.50224688     1.01300
C3230       C  0.82710376  0.66919680  0.49955078     1.00000
C3231       C  0.74767717  0.82633854  0.07926904     0.99400
C3232       C  0.75440614  0.82894665  0.42248330     1.01400
C3233       C  0.75245448  0.67315434  0.41942547     1.00300
C3234       C  0.74808723  0.67022177  0.07663184     0.99200
C3235       C  0.82781009  0.74982413  0.07937382     0.99200
C3236       C  0.83124398  0.74762014  0.42316085     1.01800
H3237       H  0.79335221  0.70418087  0.04378654     0.29200
O3238       O  0.78100290  0.71720426  0.03094165    -1.06100
H3239       H  0.79723666  0.79251986  0.45712757     0.31300
O3240       O  0.78381886  0.77997498  0.46940189    -1.08600
C3241       C  0.75155755  0.60079307  0.14636967    -0.07200
C3242       C  0.73385069  0.59620701  0.11990438    -0.18300
C3243       C  0.73163149  0.61855207  0.09718041     0.10000
C3244       C  0.74816229  0.64609991  0.10034647    -0.07100
C3245       C  0.76630803  0.65044560  0.12654490    -0.18300
C3246       C  0.76854630  0.62810455  0.14923765     0.10100
S3247       S  0.70583494  0.61112571  0.06576982    -0.33300
S3248       S  0.79473892  0.63533583  0.18037101    -0.33300
H3249       H  0.80542133  0.60519608  0.18234317     0.28100
H3250       H  0.69459043  0.64106696  0.06391217     0.28100
H3251       H  0.72058405  0.57549008  0.11742985     0.18600
H3252       H  0.77965423  0.67112355  0.12896737     0.18700
C3253       C  0.74922662  0.89702348  0.14849640    -0.07200
C3254       C  0.73563166  0.86871924  0.15500434    -0.18300
C3255       C  0.73372658  0.84562271  0.13294293     0.10000
C3256       C  0.74612138  0.85042030  0.10333204    -0.07100
C3257       C  0.75885125  0.87904928  0.09668531    -0.18300
C3258       C  0.76151400  0.90177301  0.11889469     0.10100
S3259       S  0.71367273  0.81142333  0.14388114    -0.33300
S3260       S  0.78306895  0.93521077  0.10833545    -0.33300
H3261       H  0.79922676  0.93680623  0.13615686     0.28100
H3262       H  0.69786405  0.80855480  0.11600010     0.28100
H3263       H  0.72563640  0.86472709  0.17733060     0.18600
H3264       H  0.76808481  0.88350543  0.07417922     0.18700
C3265       C  0.74969085  0.89891843  0.35336575    -0.07200
C3266       C  0.76750906  0.87273457  0.34839602    -0.18300
C3267       C  0.77031740  0.85007946  0.37070936     0.10000
C3268       C  0.75460688  0.85319103  0.39887658    -0.07100
C3269       C  0.73687946  0.87942630  0.40392406    -0.18300
C3270       C  0.73368877  0.90186011  0.38139489     0.10100
S3271       S  0.79534854  0.81849588  0.36209225    -0.33300
S3272       S  0.70698663  0.93230558  0.38909568    -0.33300
H3273       H  0.69606781  0.93460799  0.35893720     0.28100
H3274       H  0.80722957  0.81583944  0.39187424     0.28100
H3275       H  0.78009190  0.87022062  0.32716839     0.18600
H3276       H  0.72415914  0.88181942  0.42508966     0.18700
C3277       C  0.74978764  0.60285875  0.35109294    -0.07200
C3278       C  0.77008072  0.60042440  0.37588372    -0.18300
C3279       C  0.77242826  0.62358286  0.39768530     0.10000
C3280       C  0.75329085  0.64949491  0.39541103    -0.07100
C3281       C  0.73311249  0.65201095  0.37049787    -0.18300
C3282       C  0.73085864  0.62889943  0.34860306     0.10100
S3283       S  0.80147930  0.61937826  0.42682311    -0.33300
S3284       S  0.70226388  0.63332833  0.31901818    -0.33300
H3285       H  0.69441689  0.60233073  0.31737784     0.28100
H3286       H  0.80834628  0.65053596  0.42921632     0.28100
H3287       H  0.78505787  0.58080564  0.37768353     0.18600
H3288       H  0.71811692  0.67161200  0.36870499     0.18700
C3289       C  0.89592303  0.65062387  0.24818836    -0.07200
C3290       C  0.87106373  0.65276559  0.26851631    -0.18300
C3291       C  0.84884396  0.62974102  0.27036276     0.10000
C3292       C  0.85154464  0.60355325  0.25165268    -0.07100
C3293       C  0.87602845  0.60179067  0.23086170    -0.18300
C3294       C  0.89749848  0.62538547  0.22823142     0.10100
S3295       S  0.81816629  0.63500658  0.29762863    -0.33300
S3296       S  0.92449055  0.62325214  0.19709068    -0.33300
H3297       H  0.92530726  0.65476126  0.19156356     0.28100
H3298       H  0.81608660  0.60420562  0.30599114     0.28100
H3299       H  0.86932109  0.67219888  0.28364633     0.18600
H3300       H  0.87752630  0.58259300  0.21540328     0.18700
C3301       C  0.89918338  0.85467333  0.25197488    -0.07200
C3302       C  0.87166048  0.84880547  0.23622060    -0.18300
C3303       C  0.84874446  0.87092872  0.23338394     0.10000
C3304       C  0.85265701  0.89954582  0.24759083    -0.07100
C3305       C  0.88032582  0.90563430  0.26292679    -0.18300
C3306       C  0.90339880  0.88367208  0.26542694     0.10100
S3307       S  0.81607869  0.86167233  0.20975336    -0.33300
S3308       S  0.93682637  0.89400541  0.28727460    -0.33300
H3309       H  0.93893780  0.86583195  0.30236912     0.28100
H3310       H  0.81372184  0.89077962  0.19659173     0.28100
H3311       H  0.86837129  0.82709391  0.22497898     0.18600
H3312       H  0.88367515  0.92743397  0.27399901     0.18700
C3313       C  0.60220670  0.64881651  0.25174101    -0.07200
C3314       C  0.63024412  0.65424766  0.23687515    -0.18300
C3315       C  0.65257251  0.63160080  0.23430803     0.10000
C3316       C  0.64773714  0.60307801  0.24850631    -0.07100
C3317       C  0.61998360  0.59787278  0.26401924    -0.18300
C3318       C  0.59751750  0.62044518  0.26617229     0.10100
S3319       S  0.68556121  0.64010403  0.21080889    -0.33300
S3320       S  0.56475643  0.61237358  0.28987897    -0.33300
H3321       H  0.56378842  0.64152026  0.30316762     0.28100
H3322       H  0.68691659  0.61109468  0.19731041     0.28100
H3323       H  0.63445675  0.67604270  0.22620904     0.18600
H3324       H  0.61619208  0.57641665  0.27561514     0.18700
C3325       C  0.60372225  0.85223048  0.24920049    -0.07200
C3326       C  0.62410583  0.85396162  0.27396422    -0.18300
C3327       C  0.64527322  0.87781617  0.27627170     0.10000
C3328       C  0.64617317  0.90026331  0.25319928    -0.07100
C3329       C  0.62559473  0.89866255  0.22862550    -0.18300
C3330       C  0.60489479  0.87452525  0.22606661     0.10100
S3331       S  0.66991446  0.87878077  0.30947867    -0.33300
S3332       S  0.58202139  0.87222576  0.19182845    -0.33300
H3333       H  0.58168723  0.84027452  0.19027802     0.28100
H3334       H  0.67349322  0.91054512  0.31040662     0.28100
H3335       H  0.62301827  0.83705173  0.29194799     0.18600
H3336       H  0.62668608  0.91551282  0.21056536     0.18700
C3337       C  0.89658214  0.75029737  0.14974400    -0.07200
C3338       C  0.87039045  0.76864219  0.15281770    -0.18300
C3339       C  0.84797692  0.76963459  0.12992431     0.10000
C3340       C  0.85135446  0.75126014  0.10358272    -0.07100
C3341       C  0.87767243  0.73311457  0.10047662    -0.18300
C3342       C  0.90001927  0.73212254  0.12331585     0.10100
S3343       S  0.81665529  0.79605712  0.13502027    -0.33300
S3344       S  0.93143026  0.70589465  0.11802035    -0.33300
H3345       H  0.93197455  0.69618460  0.14865044     0.28100
H3346       H  0.81504979  0.80463342  0.10409176     0.28100
H3347       H  0.86786865  0.78309238  0.17272465     0.18600
H3348       H  0.88036991  0.71875392  0.08052754     0.18700
C3349       C  0.60048377  0.74790611  0.14485376    -0.07200
C3350       C  0.60187023  0.77238961  0.12434996    -0.18300
C3351       C  0.62463862  0.77383210  0.10177694     0.10000
C3352       C  0.64629051  0.75001103  0.09933508    -0.07100
C3353       C  0.64485094  0.72551632  0.11977721    -0.18300
C3354       C  0.62182975  0.72388773  0.14202326     0.10100
S3355       S  0.62555131  0.80721199  0.07778733    -0.33300
S3356       S  0.61985130  0.68974014  0.16465797    -0.33300
H3357       H  0.58792205  0.69044841  0.16965907     0.28100
H3358       H  0.65758118  0.80774933  0.07357375     0.28100
H3359       H  0.58561347  0.79094915  0.12650746     0.18600
H3360       H  0.66119651  0.70701297  0.11772404     0.18700
C3361       C  0.60555099  0.75162534  0.34926895    -0.07200
C3362       C  0.62737315  0.77514291  0.34940552    -0.18300
C3363       C  0.64959329  0.77702719  0.37247604     0.10000
C3364       C  0.65038633  0.75452152  0.39550952    -0.07100
C3365       C  0.62860372  0.73102736  0.39525022    -0.18300
C3366       C  0.60646018  0.72913146  0.37225503     0.10100
S3367       S  0.67528506  0.80926532  0.37202937    -0.33300
S3368       S  0.58080583  0.69684350  0.37288203    -0.33300
H3369       H  0.57806207  0.69408138  0.34098347     0.28100
H3370       H  0.67803657  0.81175759  0.40395716     0.28100
H3371       H  0.62647990  0.79264940  0.33199259     0.18600
H3372       H  0.62941702  0.71349158  0.41264957     0.18700
C3373       C  0.90138075  0.75103191  0.35449897    -0.07200
C3374       C  0.87479845  0.73363276  0.34962657    -0.18300
C3375       C  0.85204254  0.73132623  0.37191305     0.10000
C3376       C  0.85555249  0.74713658  0.39978600    -0.07100
C3377       C  0.88236230  0.76417110  0.40493356    -0.18300
C3378       C  0.90510524  0.76664190  0.38252728     0.10100
S3379       S  0.81979037  0.70685264  0.36371688    -0.33300
S3380       S  0.93721246  0.79140525  0.39060845    -0.33300
H3381       H  0.93906668  0.80352442  0.36090592     0.28100
H3382       H  0.81766954  0.69517387  0.39355606     0.28100
H3383       H  0.87201563  0.72107834  0.32849094     0.18600
H3384       H  0.88506057  0.77667617  0.42610734     0.18700
C3385       C  0.85701201  0.84773442  0.00267350    -0.07200
C3386       C  0.88179517  0.84491794  0.48208160    -0.18300
C3387       C  0.90410295  0.86777171  0.47953212     0.10000
C3388       C  0.90142860  0.89430296  0.99868386    -0.07100
C3389       C  0.87802323  0.89564179  0.02061467    -0.18300
C3390       C  0.85642279  0.87233660  0.02335850     0.10100
S3391       S  0.93389625  0.86254106  0.45128140    -0.33300
S3392       S  0.83016484  0.87434572  0.05510592    -0.33300
H3393       H  0.82744470  0.84275338  0.05930768     0.28100
H3394       H  0.93663731  0.89347007  0.44361646     0.28100
H3395       H  0.88310157  0.82530401  0.46714249     0.18600
H3396       H  0.87731826  0.91444645  0.03661512     0.18700
C3397       C  0.85045051  0.64516884  0.99980544    -0.07200
C3398       C  0.87472648  0.64671753  0.47915668    -0.18300
C3399       C  0.89637354  0.62341600  0.47697076     0.10000
C3400       C  0.89479194  0.59860481  0.99683399    -0.07100
C3401       C  0.86982177  0.59626679  0.01700064    -0.18300
C3402       C  0.84765834  0.61923013  0.01871868     0.10100
S3403       S  0.92464656  0.62634780  0.44710432    -0.33300
S3404       S  0.81719697  0.61461505  0.04635704    -0.33300
H3405       H  0.81600304  0.64546699  0.05475436     0.28100
H3406       H  0.92556589  0.59500558  0.44067485     0.28100
H3407       H  0.87643370  0.66604184  0.46385740     0.18600
H3408       H  0.86808384  0.57688670  0.03221360     0.18700
C3409       C  0.65063192  0.85315510  0.00066124    -0.07200
C3410       C  0.62351544  0.84861149  0.48477134    -0.18300
C3411       C  0.60097684  0.87112250  0.48285757     0.10000
C3412       C  0.60512732  0.89932490  0.99697494    -0.07100
C3413       C  0.63387740  0.90512749  0.01036982    -0.18300
C3414       C  0.65590083  0.88212916  0.01373768     0.10100
S3415       S  0.56734106  0.86172678  0.46119740    -0.33300
S3416       S  0.68860974  0.89039270  0.03764236    -0.33300
H3417       H  0.68835029  0.86183321  0.05221345     0.28100
H3418       H  0.56594999  0.89007430  0.44632830     0.28100
H3419       H  0.61951575  0.82702397  0.47349675     0.18600
H3420       H  0.63872949  0.92735753  0.01971635     0.18700
C3421       C  0.64705924  0.64847096  0.99897612    -0.07200
C3422       C  0.62227849  0.65178997  0.01926747    -0.18300
C3423       C  0.59993509  0.62903452  0.02235284     0.10000
C3424       C  0.60168305  0.60261229  0.00402290    -0.07100
C3425       C  0.62701869  0.59879312  0.48567645    -0.18300
C3426       C  0.64950829  0.62129816  0.48254904     0.10100
S3427       S  0.57104648  0.63436311  0.05137339    -0.33300
S3428       S  0.68028546  0.61393611  0.45587260    -0.33300
H3429       H  0.68193963  0.64393637  0.44481599     0.28100
H3430       H  0.56799617  0.60337983  0.05876517     0.28100
H3431       H  0.62091373  0.67180039  0.03365968     0.18600
H3432       H  0.62911478  0.57816624  0.47228062     0.18700
C3433       C  0.89803044  0.50017313  0.39745662    -0.07200
C3434       C  0.87097772  0.98351629  0.40218380    -0.18300
C3435       C  0.84824756  0.98166656  0.37970666     0.10000
C3436       C  0.85215663  0.49740457  0.35186824    -0.07100
C3437       C  0.87929945  0.51392243  0.34699438    -0.18300
C3438       C  0.90201635  0.51580966  0.36944917     0.10100
S3439       S  0.81559852  0.95754517  0.38758343    -0.33300
S3440       S  0.93461700  0.53983612  0.36126055    -0.33300
H3441       H  0.93623024  0.55236874  0.39078858     0.28100
H3442       H  0.81364829  0.94580860  0.35773978     0.28100
H3443       H  0.86784849  0.97095589  0.42327090     0.18600
H3444       H  0.88238810  0.52645415  0.32588233     0.18700
C3445       C  0.60298502  0.49954374  0.39945610    -0.07200
C3446       C  0.62907971  0.51793320  0.40324961    -0.18300
C3447       C  0.65168061  0.51968738  0.38061983     0.10000
C3448       C  0.64838796  0.50231561  0.35359107    -0.07100
C3449       C  0.62250866  0.98359285  0.35003966    -0.18300
C3450       C  0.60014212  0.98156014  0.37281277     0.10100
S3451       S  0.68329995  0.54547799  0.38722855    -0.33300
S3452       S  0.56969752  0.95424248  0.36722298    -0.33300
H3453       H  0.56888335  0.94471174  0.39792111     0.28100
H3454       H  0.68603106  0.55489429  0.35663828     0.28100
H3455       H  0.63143877  0.53179065  0.42359909     0.18600
H3456       H  0.62024417  0.96958973  0.32978234     0.18700
C3457       C  0.64648083  0.50159425  0.14884591    -0.07200
C3458       C  0.64670947  0.97855364  0.12671483    -0.18300
C3459       C  0.62354973  0.97676036  0.10471572     0.10000
C3460       C  0.60024768  0.49911474  0.10404878    -0.07100
C3461       C  0.59978999  0.52190292  0.12642140    -0.18300
C3462       C  0.62286883  0.52362444  0.14856826     0.10100
S3463       S  0.62405690  0.94449248  0.07941607    -0.33300
S3464       S  0.62184043  0.55536045  0.17467567    -0.33300
H3465       H  0.65392325  0.55859205  0.17727396     0.28100
H3466       H  0.59204624  0.94234905  0.07563676     0.28100
H3467       H  0.66449663  0.96128322  0.12718423     0.18600
H3468       H  0.58194492  0.53910544  0.12596532     0.18700
C3469       C  0.89624817  0.49527573  0.10152754    -0.07200
C3470       C  0.86956905  0.51253109  0.09653636    -0.18300
C3471       C  0.84681003  0.51493656  0.11889864     0.10000
C3472       C  0.85031865  0.49909868  0.14681605    -0.07100
C3473       C  0.87672181  0.98150221  0.15161434    -0.18300
C3474       C  0.89947770  0.97908472  0.12924827     0.10100
S3475       S  0.81500421  0.54009811  0.11101844    -0.33300
S3476       S  0.93119119  0.95381806  0.13702717    -0.33300
H3477       H  0.93337637  0.94282564  0.10692081     0.28100
H3478       H  0.81349370  0.55199553  0.14081989     0.28100
H3479       H  0.86698239  0.52530415  0.07550130     0.18600
H3480       H  0.87929112  0.96878774  0.17268554     0.18700
C3481       C  0.50038238  0.60261757  0.39799565    -0.07200
C3482       C  0.49203344  0.63248150  0.40602462    -0.18300
C3483       C  0.48927870  0.65563723  0.38418600     0.10000
C3484       C  0.49631047  0.64956390  0.35311991    -0.07100
C3485       C  0.00415857  0.61963639  0.34505608    -0.18300
C3486       C  0.00735691  0.59661006  0.36690807     0.10100
S3487       S  0.47482215  0.69167401  0.39762787    -0.33300
S3488       S  0.02305814  0.56107483  0.35350588    -0.33300
H3489       H  0.04411859  0.55836236  0.37779266     0.28100
H3490       H  0.45457422  0.69563668  0.37286464     0.28100
H3491       H  0.48689853  0.63790210  0.42959051     0.18600
H3492       H  0.00904928  0.61419304  0.32148978     0.18700
C3493       C  0.50042434  0.89839795  0.39776364    -0.07200
C3494       C  0.00966687  0.86874611  0.40548200    -0.18300
C3495       C  0.01397355  0.84616099  0.38329823     0.10000
C3496       C  0.50622025  0.85240320  0.35254176    -0.07100
C3497       C  0.49670997  0.88194028  0.34483856    -0.18300
C3498       C  0.49314063  0.90463260  0.36685354     0.10100
S3499       S  0.03230376  0.81089413  0.39447796    -0.33300
S3500       S  0.47708753  0.94015180  0.35385664    -0.33300
H3501       H  0.45549559  0.94176938  0.37778194     0.28100
H3502       H  0.02922620  0.81458077  0.42622754     0.28100
H3503       H  0.01428241  0.86332893  0.42902329     0.18600
H3504       H  0.49121903  0.88739240  0.32140585     0.18700
C3505       C  0.49492381  0.85360856  0.14881273    -0.07200
C3506       C  0.50893981  0.88166926  0.15513955    -0.18300
C3507       C  0.51186861  0.90408845  0.13275975     0.10000
C3508       C  0.49905838  0.89920182  0.10343291    -0.07100
C3509       C  0.98396314  0.87159124  0.09743067    -0.18300
C3510       C  0.98135973  0.84903675  0.11980279     0.10100
S3511       S  0.53406906  0.93732151  0.14274584    -0.33300
S3512       S  0.95870043  0.81597013  0.11044084    -0.33300
H3513       H  0.94448681  0.81419926  0.13929280     0.28100
H3514       H  0.54918902  0.93922887  0.11440430     0.28100
H3515       H  0.51890870  0.88579467  0.17741130     0.18600
H3516       H  0.97324160  0.86788028  0.07539055     0.18700
C3517       C  0.49917730  0.64956006  0.14700663    -0.07200
C3518       C  0.99369567  0.61923024  0.15577726    -0.18300
C3519       C  0.99150113  0.59567845  0.13438773     0.10000
C3520       C  0.49597941  0.60191976  0.10286725    -0.07100
C3521       C  0.50122539  0.63223690  0.09408501    -0.18300
C3522       C  0.50340846  0.65577699  0.11544219     0.10100
S3523       S  0.98150426  0.55871630  0.14924801    -0.33300
S3524       S  0.51322988  0.69266634  0.10034483    -0.33300
H3525       H  0.53791196  0.69682236  0.12071731     0.28100
H3526       H  0.95756118  0.55422275  0.12806628     0.28100
H3527       H  0.99032088  0.61366560  0.17964478     0.18600
H3528       H  0.50461991  0.63778981  0.07021702     0.18700
O3529       O  0.49739477  0.54941399  0.58742496    -0.81200
O3530       O  0.49957963  0.54986241  0.91345466    -0.82700
O3531       O  0.54867948  0.58762737  0.50380553    -0.79800
O3532       O  0.94687590  0.58431860  0.49791425    -0.78100
O3533       O  0.91038202  0.54673716  0.49925082    -0.79900
O3534       O  0.58640247  0.55130795  0.50358200    -0.80900
O3535       O  0.50037728  0.58674842  0.95002801    -0.82200
O3536       O  0.49574966  0.58625242  0.55087803    -0.82500
Eu3537     Eu  0.49843170  0.56161944  0.50056182     2.39200
O3538       O  0.96813614  0.53005581  0.96947263    -0.90000
O3539       O  0.52975621  0.53111099  0.53170953    -0.93600
C3540       C  0.49592100  0.57747410  0.57905585     1.01100
C3541       C  0.50035794  0.57797232  0.92182894     1.00900
C3542       C  0.57715689  0.57918302  0.50440994     1.00900
C3543       C  0.91876284  0.57485457  0.49791536     0.98700
H3544       H  0.54380499  0.54422351  0.95727090     0.28500
O3545       O  0.53101248  0.53135723  0.96985333    -1.02400
H3546       H  0.95366419  0.54218829  0.54361386     0.28500
O3547       O  0.96710138  0.52999109  0.53100995    -1.04900
O3548       O  0.50072915  0.94983078  0.91413360    -0.82100
O3549       O  0.49806935  0.95039050  0.58756528    -0.81700
O3550       O  0.58766409  0.50150435  0.95112493    -0.80100
O3551       O  0.91232046  0.49900045  0.94981787    -0.83500
O3552       O  0.91157108  0.49602598  0.54947230    -0.81300
O3553       O  0.58606735  0.49969936  0.55214395    -0.80000
O3554       O  0.55319572  0.91464401  0.49873128    -0.81500
O3555       O  0.95341751  0.91051601  0.49863376    -0.83400
O3556       O  0.58974912  0.95190203  0.49886881    -0.80100
O3557       O  0.91506683  0.94620934  0.49852154    -0.82800
O3558       O  0.55061360  0.49939562  0.91402988    -0.78600
O3559       O  0.54810793  0.50052209  0.58847744    -0.78600
O3560       O  0.94826924  0.49705951  0.58686189    -0.78200
O3561       O  0.95003243  0.49990586  0.91345104    -0.81700
O3562       O  0.50088098  0.91288554  0.95066355    -0.81200
O3563       O  0.50134819  0.91345867  0.55098856    -0.79500
Eu3564     Eu  0.50027121  0.49998694  0.93885944     2.39800
Eu3565     Eu  0.49865154  0.49967131  0.56205233     2.39600
Eu3566     Eu  0.56226584  0.50096370  0.50129424     2.38400
Eu3567     Eu  0.93745404  0.49779838  0.49975697     2.39900
Eu3568     Eu  0.50191430  0.93807351  0.50033512     2.39800
O3569       O  0.96894162  0.96761300  0.53096160    -0.93900
O3570       O  0.53211741  0.96954340  0.96968363    -0.92800
C3571       C  0.50037743  0.92171994  0.92253710     1.01300
C3572       C  0.49980139  0.92242323  0.57907458     1.00000
C3573       C  0.57883464  0.50008237  0.92302148     0.99400
C3574       C  0.92159985  0.49987129  0.92181169     1.01400
C3575       C  0.92013725  0.49576853  0.57768876     1.00300
C3576       C  0.57648184  0.49982266  0.58005478     0.99200
C3577       C  0.58140681  0.92370213  0.49787508     0.99200
C3578       C  0.92494950  0.91846722  0.49806842     1.01800
H3579       H  0.54444650  0.95674797  0.54496803     0.29200
O3580       O  0.53162002  0.96931669  0.53213930    -1.06100
H3581       H  0.95724379  0.95548439  0.95646284     0.31300
O3582       O  0.96970823  0.96828501  0.96941109    -1.08600
O3583       O  0.49839676  0.70147127  0.66310574    -0.81200
O3584       O  0.50066311  0.70089960  0.83729404    -0.82700
O3585       O  0.55034746  0.66434125  0.75046273    -0.79800
O3586       O  0.94873051  0.66493856  0.74855207    -0.78100
O3587       O  0.91190556  0.70206742  0.75125135    -0.79900
O3588       O  0.58790039  0.70082071  0.75041704    -0.80900
O3589       O  0.49684999  0.66445700  0.80045140    -0.82200
O3590       O  0.50007309  0.66450726  0.69953251    -0.82500
Eu3591     Eu  0.49979276  0.68927202  0.74993149     2.39200
O3592       O  0.96969866  0.72032696  0.78167825    -0.90000
O3593       O  0.53091941  0.71996655  0.71842779    -0.93600
C3594       C  0.49931869  0.67334041  0.67137422     1.01100
C3595       C  0.49770271  0.67300595  0.82871521     1.00900
C3596       C  0.57874058  0.67293501  0.75111385     1.00900
C3597       C  0.92046362  0.67397844  0.74939220     0.98700
H3598       H  0.54526118  0.70677897  0.79281663     0.28500
O3599       O  0.53255907  0.71953815  0.78009164    -1.02400
H3600       H  0.95549970  0.70838402  0.70713794     0.28500
O3601       O  0.96859727  0.72084707  0.71978014    -1.04900
O3602       O  0.50442902  0.79996030  0.83718634    -0.82100
O3603       O  0.49761248  0.80148969  0.66352198    -0.81700
O3604       O  0.58989135  0.75229768  0.79775943    -0.80100
O3605       O  0.91526680  0.75127179  0.80270117    -0.83500
O3606       O  0.91176850  0.75186792  0.70191897    -0.81300
O3607       O  0.58712628  0.74799337  0.69742315    -0.80000
O3608       O  0.55172776  0.83736466  0.74893032    -0.81500
O3609       O  0.95158010  0.83883096  0.75138559    -0.83400
O3610       O  0.58901511  0.80052941  0.74907793    -0.80100
O3611       O  0.91397861  0.80253217  0.75206230    -0.82800
O3612       O  0.55342908  0.75013284  0.83547117    -0.78600
O3613       O  0.54900091  0.75049989  0.66138350    -0.78600
O3614       O  0.94872117  0.75152620  0.66466129    -0.78200
O3615       O  0.95349254  0.75092948  0.83856860    -0.81700
O3616       O  0.50463246  0.83704022  0.80080029    -0.81200
O3617       O  0.49760141  0.83797707  0.70066075    -0.79500
Eu3618     Eu  0.50246144  0.75054329  0.81165376     2.39800
Eu3619     Eu  0.49956103  0.75141796  0.68832879     2.39600
Eu3620     Eu  0.56322236  0.75072011  0.74843745     2.38400
Eu3621     Eu  0.93822427  0.75180408  0.75154510     2.39900
Eu3622     Eu  0.50131693  0.81266811  0.75036838     2.39800
O3623       O  0.96916822  0.78229564  0.71998040    -0.93900
O3624       O  0.53300522  0.78145448  0.78028444    -0.92800
C3625       C  0.50534772  0.82804129  0.82889310     1.01300
C3626       C  0.49652574  0.82941764  0.67249268     1.00000
C3627       C  0.58148287  0.75123492  0.82598871     0.99400
C3628       C  0.92503095  0.75123071  0.83055672     1.01400
C3629       C  0.92053369  0.75126581  0.67373227     1.00300
C3630       C  0.57743185  0.74863308  0.66952951     0.99200
C3631       C  0.57997102  0.82847988  0.74901114     0.99200
C3632       C  0.92315317  0.83050719  0.75193749     1.01800
H3633       H  0.54448413  0.79491888  0.70499680     0.29200
O3634       O  0.53195956  0.78230228  0.71810330    -1.06100
H3635       H  0.95827646  0.79500142  0.79531918     0.31300
O3636       O  0.97048564  0.78219160  0.78210817    -1.08600
O3637       O  0.83564367  0.00026700  0.69861340    -0.81200
O3638       O  0.66152130  0.00258930  0.70051871    -0.82700
O3639       O  0.74835736  0.94914716  0.66365012    -0.79800
O3640       O  0.74892491  0.54914958  0.66215065    -0.78100
O3641       O  0.75079019  0.58628222  0.69868706    -0.79900
O3642       O  0.74887092  0.91256913  0.70066936    -0.80900
O3643       O  0.69825680  0.99940187  0.66314603    -0.82200
O3644       O  0.79796667  0.99858666  0.66214374    -0.82500
Eu3645     Eu  0.74845954  0.99956385  0.68818576     2.39200
O3646       O  0.71798144  0.53139092  0.71883734    -0.90000
O3647       O  0.77999580  0.96933438  0.71930258    -0.93600
C3648       C  0.82630344  0.99947636  0.67060606     1.01100
C3649       C  0.67018698  0.00130168  0.67235286     1.00900
C3650       C  0.74894393  0.92111195  0.67240214     1.00900
C3651       C  0.75036698  0.57724428  0.67060237     0.98700
H3652       H  0.70418555  0.95654471  0.70714125     0.28500
O3653       O  0.71724584  0.96922912  0.71963442    -1.02400
H3654       H  0.79328940  0.54344374  0.70530306     0.28500
O3655       O  0.78047314  0.53089607  0.71819946    -1.04900
O3656       O  0.66242061  0.00166225  0.80127331    -0.82100
O3657       O  0.83682362  0.99864552  0.79990588    -0.81700
O3658       O  0.69788564  0.91497475  0.75257390    -0.80100
O3659       O  0.70001775  0.58750584  0.74914522    -0.83500
O3660       O  0.79981759  0.58738983  0.75088987    -0.81300
O3661       O  0.79978454  0.91405654  0.74895776    -0.80000
O3662       O  0.74890998  0.95086138  0.83772203    -0.81500
O3663       O  0.75073817  0.55094315  0.83668812    -0.83400
O3664       O  0.74935408  0.91380821  0.80108987    -0.80100
O3665       O  0.75033313  0.58729609  0.79925694    -0.82800
O3666       O  0.66072370  0.95194175  0.75086595    -0.78600
O3667       O  0.83690725  0.95089872  0.74770284    -0.78600
O3668       O  0.83731242  0.55092212  0.75045231    -0.78200
O3669       O  0.66226320  0.55135705  0.74975906    -0.81700
O3670       O  0.70005673  0.00092891  0.83782456    -0.81200
O3671       O  0.79979016  0.99940310  0.83700255    -0.79500
Eu3672     Eu  0.68693718  0.00117737  0.75060120     2.39800
Eu3673     Eu  0.81172270  0.00059679  0.74953328     2.39600
Eu3674     Eu  0.74894833  0.93862645  0.75057173     2.38400
Eu3675     Eu  0.74987213  0.56194187  0.74940162     2.39900
Eu3676     Eu  0.74975658  0.00067564  0.81191858     2.39800
O3677       O  0.78104622  0.53150366  0.78083139    -0.93900
O3678       O  0.71800210  0.96993294  0.78147354    -0.92800
C3679       C  0.67172576  0.00164075  0.82929784     1.01300
C3680       C  0.82798735  0.99826340  0.82810056     1.00000
C3681       C  0.66966991  0.92402498  0.75215497     0.99400
C3682       C  0.67161020  0.57920239  0.74899548     1.01400
C3683       C  0.82816442  0.57891927  0.75125402     1.00300
C3684       C  0.82808990  0.92288510  0.74767010     0.99200
C3685       C  0.74893046  0.92274174  0.82922056     0.99200
C3686       C  0.75044242  0.57885505  0.82748299     1.01800
H3687       H  0.79348174  0.95677452  0.79347258     0.29200
O3688       O  0.78067899  0.96960482  0.78086641    -1.06100
H3689       H  0.70600949  0.54481168  0.79389639     0.31300
O3690       O  0.71857668  0.53189719  0.78116852    -1.08600
O3691       O  0.69931372  0.66320650  0.99814842    -0.81200
O3692       O  0.70276353  0.83694593  0.99984649    -0.82700
O3693       O  0.66196289  0.75075381  0.54764886    -0.79800
O3694       O  0.66477414  0.75192653  0.94727400    -0.78100
O3695       O  0.70267390  0.75395199  0.91094599    -0.79900
O3696       O  0.69858863  0.74769305  0.58518089    -0.80900
O3697       O  0.66476077  0.80100141  0.99931041    -0.82200
O3698       O  0.66249917  0.70035962  0.99861849    -0.82500
Eu3699     Eu  0.68855448  0.75029849  0.99809152     2.39200
O3700       O  0.72106666  0.78141679  0.96851083    -0.90000
O3701       O  0.71838970  0.71871571  0.52934837    -0.93600
C3702       C  0.67112844  0.67222601  0.99837975     1.01100
C3703       C  0.67425926  0.82884024  0.00008174     1.00900
C3704       C  0.67050210  0.74934805  0.57586294     1.00900
C3705       C  0.67426891  0.75361143  0.91939360     0.94300
H3706       H  0.70709983  0.79283424  0.54261726     0.28500
O3707       O  0.72005072  0.78014305  0.52997249    -1.02400
H3708       H  0.70677782  0.70699866  0.95359246     0.28500
O3709       O  0.71949650  0.71930192  0.96682835    -1.04900
O3710       O  0.80431182  0.83408024  0.00284905    -0.82100
O3711       O  0.79891864  0.66150181  0.99905130    -0.81700
O3712       O  0.74762013  0.79802979  0.58765362    -0.80100
O3713       O  0.75367709  0.80105888  0.91331931    -0.83500
O3714       O  0.75266851  0.70116595  0.91108691    -0.81300
O3715       O  0.74876915  0.69799739  0.58579451    -0.80000
O3716       O  0.83747880  0.74820933  0.55144846    -0.81500
O3717       O  0.83970102  0.74685441  0.95156151    -0.83400
O3718       O  0.79947772  0.74963711  0.58760140    -0.80100
O3719       O  0.80323275  0.74963495  0.91400421    -0.82800
O3720       O  0.74980450  0.83508245  0.55119403    -0.78600
O3721       O  0.74824462  0.66189814  0.54817444    -0.78600
O3722       O  0.75220875  0.66394172  0.94767218    -0.78200
O3723       O  0.75401542  0.83726083  0.95080829    -0.81700
O3724       O  0.84069034  0.79649700  0.00062456    -0.81200
O3725       O  0.83715256  0.69725976  0.99988877    -0.79500
Eu3726     Eu  0.75264414  0.81102522  0.00052536     2.39800
Eu3727     Eu  0.74965097  0.68786816  0.99846597     2.39600
Eu3728     Eu  0.74967760  0.74841082  0.56142239     2.38400
Eu3729     Eu  0.75216712  0.75060550  0.93748210     2.39900
Eu3730     Eu  0.81325222  0.74786565  0.00081243     2.39800
O3731       O  0.78193673  0.71856822  0.96860900    -0.93900
O3732       O  0.78260699  0.77902072  0.53179104    -0.92800
C3733       C  0.83244169  0.82460717  0.00213173     1.01300
C3734       C  0.82736854  0.66954947  0.99965076     1.00000
C3735       C  0.74764534  0.82619765  0.57927644     0.99400
C3736       C  0.75431937  0.82894336  0.92249142     1.01400
C3737       C  0.75311947  0.67304929  0.91962869     1.00300
C3738       C  0.74813055  0.67012882  0.57649806     0.99200
C3739       C  0.82794989  0.74962840  0.57935303     0.99200
C3740       C  0.83128103  0.74773078  0.92334193     1.01800
H3741       H  0.79330765  0.70402214  0.54363216     0.29200
O3742       O  0.78098699  0.71709867  0.53081443    -1.06100
H3743       H  0.79712303  0.79266782  0.95720417     0.31300
O3744       O  0.78372126  0.78011374  0.96948493    -1.08600
C3745       C  0.75119958  0.60071351  0.64623581    -0.07200
C3746       C  0.73312609  0.59639220  0.61997322    -0.18300
C3747       C  0.73108716  0.61873528  0.59722755     0.10000
C3748       C  0.74813491  0.64599414  0.60018886    -0.07100
C3749       C  0.76661472  0.65007272  0.62619774    -0.18300
C3750       C  0.76868069  0.62772956  0.64890156     0.10100
S3751       S  0.70488400  0.61172031  0.56605546    -0.33300
S3752       S  0.79531053  0.63450043  0.67976919    -0.33300
H3753       H  0.80560371  0.60421057  0.68148583     0.28100
H3754       H  0.69420313  0.64186234  0.56419723     0.28100
H3755       H  0.71948476  0.57589356  0.61767205     0.18600
H3756       H  0.78033751  0.67052714  0.62845372     0.18700
C3757       C  0.74910181  0.89698516  0.64840479    -0.07200
C3758       C  0.73579826  0.86857184  0.65504648    -0.18300
C3759       C  0.73383626  0.84546427  0.63300403     0.10000
C3760       C  0.74598350  0.85031327  0.60330540    -0.07100
C3761       C  0.75835158  0.87905921  0.59651554    -0.18300
C3762       C  0.76103087  0.90182631  0.61866905     0.10100
S3763       S  0.71386830  0.81124885  0.64403324    -0.33300
S3764       S  0.78209289  0.93546979  0.60778599    -0.33300
H3765       H  0.79860289  0.93726696  0.63538700     0.28100
H3766       H  0.69786681  0.80843722  0.61624656     0.28100
H3767       H  0.72601843  0.86451161  0.67745374     0.18600
H3768       H  0.76723407  0.88361496  0.57390232     0.18700
C3769       C  0.74943511  0.89890226  0.85332553    -0.07200
C3770       C  0.76697756  0.87255665  0.84819340    -0.18300
C3771       C  0.76992138  0.84993842  0.87054095     0.10000
C3772       C  0.75452188  0.85318402  0.89886314    -0.07100
C3773       C  0.73714105  0.87960443  0.90409854    -0.18300
C3774       C  0.73392344  0.90206636  0.88160687     0.10100
S3775       S  0.79481870  0.81827971  0.86181477    -0.33300
S3776       S  0.70787750  0.93293069  0.88976848    -0.33300
H3777       H  0.69600544  0.93482851  0.85993460     0.28100
H3778       H  0.80696927  0.81573729  0.89150319     0.28100
H3779       H  0.77929267  0.86990728  0.82682829     0.18600
H3780       H  0.72473429  0.88216597  0.92542653     0.18700
C3781       C  0.75042465  0.60299937  0.85097570    -0.07200
C3782       C  0.77046486  0.60026591  0.87595917    -0.18300
C3783       C  0.77289344  0.62334632  0.89786028     0.10000
C3784       C  0.75404190  0.64945761  0.89552711    -0.07100
C3785       C  0.73420810  0.65231228  0.87038503    -0.18300
C3786       C  0.73194244  0.62934812  0.84834350     0.10100
S3787       S  0.80170148  0.61882683  0.92718468    -0.33300
S3788       S  0.70392516  0.63445459  0.81833075    -0.33300
H3789       H  0.69534523  0.60365577  0.81659618     0.28100
H3790       H  0.80903030  0.64990741  0.92936362     0.28100
H3791       H  0.78518018  0.58046339  0.87784825     0.18600
H3792       H  0.71947921  0.67210117  0.86849307     0.18700
C3793       C  0.89614199  0.65032482  0.74845372    -0.07200
C3794       C  0.87122430  0.65246957  0.76872778    -0.18300
C3795       C  0.84898223  0.62944684  0.77050939     0.10000
C3796       C  0.85174064  0.60324800  0.75182879    -0.07100
C3797       C  0.87633618  0.60142647  0.73118544    -0.18300
C3798       C  0.89780407  0.62502158  0.72858143     0.10100
S3799       S  0.81814179  0.63472816  0.79759176    -0.33300
S3800       S  0.92495151  0.62273060  0.69759377    -0.33300
H3801       H  0.92611981  0.65422702  0.69207956     0.28100
H3802       H  0.81618841  0.60395142  0.80608861     0.28100
H3803       H  0.86942670  0.67191870  0.78383058     0.18600
H3804       H  0.87791524  0.58218549  0.71578957     0.18700
C3805       C  0.89918301  0.85459002  0.75145346    -0.07200
C3806       C  0.87145277  0.84850795  0.73612201    -0.18300
C3807       C  0.84846987  0.87059038  0.73327058     0.10000
C3808       C  0.85248035  0.89937007  0.74711966    -0.07100
C3809       C  0.88037238  0.90568146  0.76197688    -0.18300
C3810       C  0.90354464  0.88380229  0.76441033     0.10100
S3811       S  0.81561969  0.86110067  0.70999126    -0.33300
S3812       S  0.93731666  0.89454223  0.78555487    -0.33300
H3813       H  0.93939146  0.86675033  0.80135280     0.28100
H3814       H  0.81315772  0.89008457  0.69657027     0.28100
H3815       H  0.86804212  0.82665079  0.72520802     0.18600
H3816       H  0.88385318  0.92761998  0.77272544     0.18700
C3817       C  0.60271760  0.64918461  0.75221228    -0.07200
C3818       C  0.63039466  0.65432316  0.73661427    -0.18300
C3819       C  0.65262383  0.63160660  0.73395243     0.10000
C3820       C  0.64799447  0.60331662  0.74866128    -0.07100
C3821       C  0.62068746  0.59848727  0.76505145    -0.18300
C3822       C  0.59840564  0.62120481  0.76745554     0.10100
S3823       S  0.68529061  0.63974156  0.70988820    -0.33300
S3824       S  0.56654806  0.61401263  0.79262376    -0.33300
H3825       H  0.56570108  0.64370343  0.80463435     0.28100
H3826       H  0.68627408  0.61060318  0.69664809     0.28100
H3827       H  0.63441313  0.67595386  0.72556278     0.18600
H3828       H  0.61719344  0.57727811  0.77718694     0.18700
C3829       C  0.60356085  0.85233078  0.74902653    -0.07200
C3830       C  0.62339142  0.85467477  0.77416955    -0.18300
C3831       C  0.64447796  0.87859736  0.77634141     0.10000
C3832       C  0.64590007  0.90044100  0.75273538    -0.07100
C3833       C  0.62586265  0.89825595  0.72776811    -0.18300
C3834       C  0.60516730  0.87408754  0.72540558     0.10100
S3835       S  0.66837647  0.88046303  0.81003597    -0.33300
S3836       S  0.58276113  0.87106879  0.69092454    -0.33300
H3837       H  0.58295424  0.83909584  0.68983940     0.28100
H3838       H  0.67151098  0.91229250  0.81042814     0.28100
H3839       H  0.62191639  0.83820667  0.79253893     0.18600
H3840       H  0.62733997  0.91467977  0.70934169     0.18700
C3841       C  0.89664795  0.75002582  0.64989483    -0.07200
C3842       C  0.87067210  0.76870527  0.65270943    -0.18300
C3843       C  0.84830454  0.76971435  0.62975641     0.10000
C3844       C  0.85149462  0.75102391  0.60360770    -0.07100
C3845       C  0.87758500  0.73250313  0.60078358    -0.18300
C3846       C  0.89988900  0.73149603  0.62369091     0.10100
S3847       S  0.81728609  0.79654586  0.63453422    -0.33300
S3848       S  0.93103135  0.70487885  0.61874977    -0.33300
H3849       H  0.93195223  0.69592560  0.64959992     0.28100
H3850       H  0.81555796  0.80462740  0.60347642     0.28100
H3851       H  0.86830233  0.78340670  0.67244864     0.18600
H3852       H  0.88013446  0.71789194  0.58100067     0.18700
C3853       C  0.60060775  0.74769120  0.64500619    -0.07200
C3854       C  0.60203846  0.77212848  0.62446613    -0.18300
C3855       C  0.62478075  0.77348926  0.60186850     0.10000
C3856       C  0.64642125  0.74964657  0.59946232    -0.07100
C3857       C  0.64488186  0.72513088  0.61989310    -0.18300
C3858       C  0.62182548  0.72356803  0.64213120     0.10100
S3859       S  0.62557698  0.80679684  0.57775910    -0.33300
S3860       S  0.61957249  0.68935584  0.66464283    -0.33300
H3861       H  0.58771743  0.69043395  0.67003449     0.28100
H3862       H  0.65749254  0.80707275  0.57278377     0.28100
H3863       H  0.58581232  0.79071665  0.62659683     0.18600
H3864       H  0.66115435  0.70656611  0.61782737     0.18700
C3865       C  0.60576041  0.75104419  0.84928375    -0.07200
C3866       C  0.62769436  0.77446341  0.84920906    -0.18300
C3867       C  0.64996675  0.77640474  0.87220996     0.10000
C3868       C  0.65068141  0.75406506  0.89540097    -0.07100
C3869       C  0.62886199  0.73060885  0.89530257    -0.18300
C3870       C  0.60668469  0.72863297  0.87235563     0.10100
S3871       S  0.67579517  0.80853192  0.87150216    -0.33300
S3872       S  0.58106713  0.69632126  0.87314096    -0.33300
H3873       H  0.57813666  0.69355717  0.84126245     0.28100
H3874       H  0.67830719  0.81140409  0.90341831     0.28100
H3875       H  0.62683413  0.79187467  0.83169466     0.18600
H3876       H  0.62966891  0.71316593  0.91279751     0.18700
C3877       C  0.90169842  0.75078006  0.85491580    -0.07200
C3878       C  0.87474970  0.73404797  0.84969880    -0.18300
C3879       C  0.85189162  0.73184478  0.87187780     0.10000
C3880       C  0.85564737  0.74712105  0.90002209    -0.07100
C3881       C  0.88285479  0.76341104  0.90555960    -0.18300
C3882       C  0.90574410  0.76572064  0.88328343     0.10100
S3883       S  0.81915916  0.70819944  0.86311592    -0.33300
S3884       S  0.93852527  0.78935637  0.89206757    -0.33300
H3885       H  0.94047470  0.80246400  0.86280019     0.28100
H3886       H  0.81685071  0.69583408  0.89266639     0.28100
H3887       H  0.87172592  0.72192605  0.82834327     0.18600
H3888       H  0.88580443  0.77545230  0.92697180     0.18700
C3889       C  0.85716226  0.84769269  0.50267222    -0.07200
C3890       C  0.88089667  0.84591267  0.98114220    -0.18300
C3891       C  0.90314942  0.86885216  0.97893959     0.10000
C3892       C  0.90182836  0.89401488  0.49814207    -0.07100
C3893       C  0.87764645  0.89635273  0.51912296    -0.18300
C3894       C  0.85584270  0.87329317  0.52207856     0.10100
S3895       S  0.93230713  0.86469764  0.94986031    -0.33300
S3896       S  0.82824187  0.87709988  0.55246483    -0.33300
H3897       H  0.82607307  0.84582070  0.55882407     0.28100
H3898       H  0.93503983  0.89589715  0.94340195     0.28100
H3899       H  0.88170067  0.82695578  0.96533328     0.18600
H3900       H  0.87639881  0.91584411  0.53423974     0.18700
C3901       C  0.85010019  0.64471419  0.49967726    -0.07200
C3902       C  0.87509892  0.64723784  0.97931836    -0.18300
C3903       C  0.89673439  0.62392693  0.97707956     0.10000
C3904       C  0.89440747  0.59810717  0.49672882    -0.07100
C3905       C  0.86945049  0.59579732  0.51691394    -0.18300
C3906       C  0.84730288  0.61879183  0.51862995     0.10100
S3907       S  0.92480966  0.62678673  0.94702663    -0.33300
S3908       S  0.81686236  0.61422036  0.54630201    -0.33300
H3909       H  0.81536596  0.64512824  0.55442476     0.28100
H3910       H  0.92585838  0.59541359  0.94077526     0.28100
H3911       H  0.87678421  0.66657606  0.96403264     0.18600
H3912       H  0.86773018  0.57643557  0.53215409     0.18700
C3913       C  0.65126257  0.85371193  0.50014801    -0.07200
C3914       C  0.62225494  0.84751381  0.98663590    -0.18300
C3915       C  0.59964229  0.86996126  0.98479222     0.10000
C3916       C  0.60583310  0.89993918  0.49648917    -0.07100
C3917       C  0.63407689  0.90531126  0.51108819    -0.18300
C3918       C  0.65607831  0.88224934  0.51432363     0.10100
S3919       S  0.56501220  0.85967183  0.96514706    -0.33300
S3920       S  0.68816293  0.88978824  0.53929005    -0.33300
H3921       H  0.68772544  0.86074913  0.55285552     0.28100
H3922       H  0.56362495  0.88703586  0.94850854     0.28100
H3923       H  0.61776830  0.82552822  0.97636848     0.18600
H3924       H  0.63850901  0.92720169  0.52138926     0.18700
C3925       C  0.64674569  0.64878266  0.49914084    -0.07200
C3926       C  0.62129728  0.65281456  0.51848068    -0.18300
C3927       C  0.59892472  0.63011191  0.52180078     0.10000
C3928       C  0.60128332  0.60299146  0.50459661    -0.07100
C3929       C  0.62675855  0.59911103  0.98411524    -0.18300
C3930       C  0.64919783  0.62170414  0.98118444     0.10100
S3931       S  0.56921798  0.63644532  0.54976879    -0.33300
S3932       S  0.67903910  0.61556765  0.95319431    -0.33300
H3933       H  0.68020828  0.64602040  0.94338863     0.28100
H3934       H  0.56645196  0.60579264  0.55855273     0.28100
H3935       H  0.61942261  0.67336158  0.53202672     0.18600
H3936       H  0.62832954  0.57902177  0.96985062     0.18700
C3937       C  0.89783766  0.50014707  0.89761066    -0.07200
C3938       C  0.87046210  0.98403577  0.90267096    -0.18300
C3939       C  0.84772017  0.98207248  0.88020133     0.10000
C3940       C  0.85197312  0.49709538  0.85194557    -0.07100
C3941       C  0.87944996  0.51297387  0.84675171    -0.18300
C3942       C  0.90214102  0.51502738  0.86922643     0.10100
S3943       S  0.81459383  0.95881535  0.88870123    -0.33300
S3944       S  0.93510520  0.53838389  0.86054746    -0.33300
H3945       H  0.93671184  0.55168333  0.88973646     0.28100
H3946       H  0.81262624  0.94614173  0.85924980     0.28100
H3947       H  0.86705619  0.97204494  0.92404777     0.18600
H3948       H  0.88282985  0.52494410  0.82535781     0.18700
C3949       C  0.60287948  0.49943676  0.89936205    -0.07200
C3950       C  0.62825242  0.51891588  0.90242372    -0.18300
C3951       C  0.65079331  0.52060710  0.87972016     0.10000
C3952       C  0.64812605  0.50215497  0.85337275    -0.07100
C3953       C  0.62295400  0.98239489  0.85054752    -0.18300
C3954       C  0.60070855  0.98036402  0.87345558     0.10100
S3955       S  0.68156340  0.54761418  0.88528112    -0.33300
S3956       S  0.57133434  0.95170200  0.86907530    -0.33300
H3957       H  0.57014093  0.94392639  0.90025485     0.28100
H3958       H  0.68411958  0.55583208  0.85432676     0.28100
H3959       H  0.63008629  0.53358087  0.92224911     0.18600
H3960       H  0.62121679  0.96760002  0.83081399     0.18700
C3961       C  0.64621745  0.50167194  0.64877309    -0.07200
C3962       C  0.64578662  0.97804936  0.62727894    -0.18300
C3963       C  0.62252968  0.97622560  0.60538070     0.10000
C3964       C  0.59977506  0.49905895  0.60422905    -0.07100
C3965       C  0.59996764  0.52247826  0.62593066    -0.18300
C3966       C  0.62319851  0.52428801  0.64791356     0.10100
S3967       S  0.62235036  0.94340566  0.58077684    -0.33300
S3968       S  0.62316328  0.55684638  0.67300733    -0.33300
H3969       H  0.65530468  0.55897564  0.67596176     0.28100
H3970       H  0.59044504  0.94234511  0.57599553     0.28100
H3971       H  0.66317186  0.96039935  0.62815929     0.18600
H3972       H  0.58256179  0.54009861  0.62501659     0.18700
C3973       C  0.89579336  0.49497525  0.60112970    -0.07200
C3974       C  0.86922774  0.51242514  0.59620831    -0.18300
C3975       C  0.84652130  0.51496350  0.61862311     0.10000
C3976       C  0.84994574  0.49902364  0.64649882    -0.07100
C3977       C  0.87622068  0.98118625  0.65121049    -0.18300
C3978       C  0.89893347  0.97869383  0.62880905     0.10100
S3979       S  0.81491605  0.54041575  0.61085949    -0.33300
S3980       S  0.93052748  0.95325247  0.63649980    -0.33300
H3981       H  0.93268501  0.94236600  0.60635166     0.28100
H3982       H  0.81320120  0.55196228  0.64078656     0.28100
H3983       H  0.86671791  0.52526899  0.57520797     0.18600
H3984       H  0.87871746  0.96837048  0.67222870     0.18700
C3985       C  0.50052496  0.60197814  0.89759572    -0.07200
C3986       C  0.49215365  0.63181768  0.90565213    -0.18300
C3987       C  0.48921493  0.65492675  0.88381943     0.10000
C3988       C  0.49624128  0.64888639  0.85276503    -0.07100
C3989       C  0.00406428  0.61897863  0.84465729    -0.18300
C3990       C  0.00732992  0.59595006  0.86649477     0.10100
S3991       S  0.47434147  0.69080998  0.89719487    -0.33300
S3992       S  0.02291240  0.56038603  0.85305143    -0.33300
H3993       H  0.04429353  0.55789360  0.87708291     0.28100
H3994       H  0.45400924  0.69439952  0.87243642     0.28100
H3995       H  0.48707382  0.63723816  0.92922845     0.18600
H3996       H  0.00890831  0.61354876  0.82106822     0.18700
C3997       C  0.50012717  0.89781747  0.89836696    -0.07200
C3998       C  0.00930825  0.86818475  0.90612609    -0.18300
C3999       C  0.01339139  0.84549270  0.88399388     0.10000
C4000       C  0.50577347  0.85175630  0.85317581    -0.07100
C4001       C  0.49619275  0.88127506  0.84549420    -0.18300
C4002       C  0.49262410  0.90396155  0.86750360     0.10100
S4003       S  0.03107724  0.80995886  0.89537887    -0.33300
S4004       S  0.47615251  0.93932322  0.85460176    -0.33300
H4005       H  0.45481780  0.94084412  0.87876465     0.28100
H4006       H  0.02857729  0.81405293  0.92712687     0.28100
H4007       H  0.01397270  0.86283501  0.92966573     0.18600
H4008       H  0.49055239  0.88670082  0.82208894     0.18700
C4009       C  0.49505837  0.85355084  0.64889669    -0.07200
C4010       C  0.50943780  0.88147929  0.65501769    -0.18300
C4011       C  0.51242259  0.90381551  0.63253290     0.10000
C4012       C  0.49942373  0.89893465  0.60327135    -0.07100
C4013       C  0.98405226  0.87145259  0.59746232    -0.18300
C4014       C  0.98127545  0.84904191  0.61997138     0.10100
S4015       S  0.53477374  0.93700216  0.64236350    -0.33300
S4016       S  0.95802980  0.81629697  0.61093308    -0.33300
H4017       H  0.94408724  0.81481420  0.63993133     0.28100
H4018       H  0.54922438  0.93932731  0.61373926     0.28100
H4019       H  0.51958846  0.88556852  0.67721683     0.18600
H4020       H  0.97316086  0.86778366  0.57549733     0.18700
C4021       C  0.49892148  0.64928223  0.64717803    -0.07200
C4022       C  0.99335617  0.61897850  0.65602080    -0.18300
C4023       C  0.99077599  0.59541593  0.63467462     0.10000
C4024       C  0.49516405  0.60155584  0.60315141    -0.07100
C4025       C  0.50046114  0.63184837  0.59428724    -0.18300
C4026       C  0.50288407  0.65543127  0.61557300     0.10100
S4027       S  0.98029454  0.55860897  0.64959013    -0.33300
S4028       S  0.51257459  0.69228867  0.60029619    -0.33300
H4029       H  0.53712065  0.69682716  0.62074446     0.28100
H4030       H  0.95646548  0.55425333  0.62825146     0.28100
H4031       H  0.99016628  0.61345333  0.67992030     0.18600
H4032       H  0.50367907  0.63735910  0.57038926     0.18700
loop_ 
_geom_bond_atom_site_label_1 
_geom_bond_atom_site_label_2 
_geom_bond_distance 
_geom_bond_site_symmetry_2 
_ccdc_geom_bond_type 
O1           C12   1.289       .  A
O1          Eu37   2.453   1_545  S
O2           C13   1.291   1_655  A
O2          Eu36   2.462   1_655  S
O3           C14   1.293       .  A
O3           Eu9   2.470   1_455  S
O4           C15   1.292       .  A
O4        Eu2025   2.458   1_556  S
O5           C15   1.291       .  A
O5          Eu39   2.455   1_545  S
O6           C14   1.291       .  A
O6          Eu38   2.453       .  S
O7           C13   1.293   1_655  A
O7         Eu513   2.467       .  S
O8           C12   1.292       .  A
O8           Eu9   2.458       .  S
Eu9        O2020   2.458   1_554  S
Eu9         O511   2.467   1_654  S
Eu9          O11   2.349   1_655  S
Eu9        O2035   2.360       .  S
Eu9        O2530   2.352   1_554  S
Eu9         O521   2.352   1_654  S
O10       Eu2529   2.352       .  S
O10        Eu543   2.355   1_545  S
O10       Eu2052   2.343       .  S
O11         Eu37   2.345   1_445  S
O11         Eu38   2.352       .  S
C12         C496   1.495       .  S
C13         C457   1.498       .  S
C14         C400   1.481       .  S
C15         C376   1.474       .  S
H16          O17   0.966       .  S
O17         Eu36   2.352       .  S
O17        Eu513   2.353   1_455  S
O17        Eu542   2.358       .  S
H18          O19   0.966       .  S
O19         Eu39   2.356   1_544  S
O19       Eu2025   2.360       .  S
O19       Eu2053   2.348   1_545  S
O20          C43   1.290       .  A
O20       Eu1044   2.457       .  S
O21          C44   1.288       .  A
O21       Eu1045   2.439       .  S
O22          C45   1.291       .  A
O22        Eu542   2.453       .  S
O23          C46   1.291       .  A
O23        Eu543   2.450       .  S
O24          C47   1.290       .  A
O24         Eu39   2.450   1_554  S
O25          C48   1.291       .  A
O25         Eu38   2.456   1_565  S
O26          C49   1.290       .  A
O26         Eu40   2.454   1_556  S
O27          C50   1.287       .  A
O27       Eu2056   2.434   1_556  S
O28          C49   1.293       .  A
O28       Eu1046   2.469   1_556  S
O29          C50   1.294       .  A
O29       Eu1047   2.473   1_556  S
O30          C45   1.289   1_565  A
O30         Eu36   2.441   1_565  S
O31          C48   1.288   1_545  A
O31         Eu37   2.444   1_445  S
O32          C47   1.289       .  A
O32       Eu2053   2.448       .  S
O33          C46   1.289   1_545  A
O33       Eu2052   2.451       .  S
O34          C43   1.291       .  A
O34        Eu544   2.454       .  S
O35          C44   1.292   1_455  A
O35         Eu40   2.463       .  S
Eu36       O1028   2.457   1_545  S
Eu36       O2049   2.451   1_455  S
Eu36       O2026   2.343   1_455  S
Eu36       O3078   2.344   1_445  S
Eu36       O1050   2.352   1_545  S
Eu37       O1029   2.439       .  S
Eu37       O2048   2.448       .  S
Eu37       O2035   2.348   1_565  S
Eu37       O3065   2.347       .  S
Eu37       O1060   2.358   1_655  S
Eu38        O526   2.452   1_554  S
Eu38       O1036   2.469   1_544  S
Eu38        O521   2.357   1_554  S
Eu38       O1060   2.351   1_545  S
Eu38       O1554   2.347   1_544  S
Eu39        O527   2.453       .  S
Eu39       O1037   2.473       .  S
Eu39        O514   2.355   1_565  S
Eu39       O1049   2.346   1_556  S
Eu39       O1566   2.343       .  S
Eu40       O2043   2.434   1_454  S
Eu40        O538   2.453   1_554  S
Eu40         O52   2.346       .  S
Eu40       O2057   2.351   1_455  S
Eu40       O2574   2.354   1_454  S
Eu40        O546   2.345   1_554  S
O41       Eu3061   2.347       .  S
O41       Eu1047   2.346       .  S
O41       Eu2056   2.351       .  S
O42       Eu1044   2.352       .  S
O42       Eu1550   2.346       .  S
O42        Eu544   2.345       .  S
C43         C469   1.492       .  S
C44         C484   1.479       .  S
C45         C421   1.473   1_545  S
C46         C409   1.478   1_565  S
C47         C445   1.474       .  S
C48         C436   1.467       .  S
C49         C388   1.492       .  S
C50         C364   1.472       .  S
H51          O52   0.965       .  S
O52       Eu1045   2.358   1_455  S
O52       Eu1046   2.351       .  S
H53          O54   0.965       .  S
O54       Eu3060   2.344       .  S
O54       Eu1551   2.342       .  S
O54       Eu2560   2.355       .  S
O55          C66   1.289       .  A
O55         Eu91   2.457       .  S
O56          C67   1.289   1_455  A
O56         Eu90   2.454       .  S
O57          C68   1.291       .  A
O57         Eu63   2.454   1_455  S
O58          C69   1.292       .  A
O58       Eu2079   2.465       .  S
O59          C69   1.293       .  A
O59         Eu93   2.468       .  S
O60          C68   1.291       .  A
O60         Eu92   2.448       .  S
O61          C67   1.295       .  A
O61         Eu63   2.474       .  S
O62          C66   1.293       .  A
O62         Eu63   2.463       .  S
Eu63       O2074   2.465       .  S
Eu63         O65   2.356   1_655  S
Eu63         O71   2.356   1_655  S
Eu63       O2089   2.348       .  S
Eu63       O2080   2.347       .  S
O64         Eu93   2.351       .  S
O64       Eu2079   2.347       .  S
O64       Eu2106   2.351       .  S
O65         Eu91   2.347   1_455  S
O65         Eu92   2.350       .  S
C66         C493   1.497       .  S
C67         C460   1.497       .  S
C68         C289   1.479       .  S
C69         C265   1.483       .  S
H70          O71   0.965       .  S
O71         Eu92   2.361       .  S
O71         Eu90   2.344       .  S
H72          O73   0.965       .  S
O73         Eu93   2.351       .  S
O73       Eu2079   2.348       .  S
O73       Eu2107   2.349       .  S
O74          C97   1.288       .  A
O74         Eu90   2.448       .  S
O75          C98   1.290       .  A
O75         Eu91   2.455       .  S
O76          C99   1.290       .  A
O76         Eu92   2.453       .  S
O77         C100   1.290       .  A
O77         Eu93   2.448       .  S
O78         C101   1.291       .  A
O78         Eu93   2.456       .  S
O79         C102   1.292       .  A
O79         Eu92   2.466       .  S
O80         C103   1.289       .  A
O80         Eu94   2.449       .  S
O81         C104   1.290       .  A
O81       Eu2110   2.452       .  S
O82         C103   1.291       .  A
O82         Eu92   2.460       .  S
O83         C104   1.293       .  A
O83         Eu93   2.465       .  S
O84          C99   1.289       .  A
O84         Eu90   2.449       .  S
O85         C102   1.289       .  A
O85         Eu91   2.452   1_455  S
O86         C101   1.288       .  A
O86       Eu2107   2.441       .  S
O87         C100   1.287       .  A
O87       Eu2106   2.436       .  S
O88          C97   1.291       .  A
O88         Eu94   2.454       .  S
O89          C98   1.289       .  A
O89         Eu94   2.445   1_655  S
Eu90       O2103   2.436   1_455  S
Eu90         O96   2.342       .  S
Eu90       O2080   2.351   1_455  S
Eu90       O2124   2.352   1_455  S
Eu91       O2102   2.441       .  S
Eu91        O106   2.351   1_655  S
Eu91       O2089   2.349       .  S
Eu91       O2111   2.348       .  S
Eu92        O106   2.355       .  S
Eu92         O96   2.345       .  S
Eu93         O95   2.349       .  S
Eu93        O108   2.356       .  S
Eu94       O2097   2.451   1_455  S
Eu94        O106   2.357       .  S
Eu94         O96   2.343       .  S
Eu94       O2111   2.348   1_455  S
Eu94       O2124   2.349   1_455  S
O95       Eu2107   2.348       .  S
O95       Eu2110   2.348       .  S
C97         C472   1.489       .  S
C98         C481   1.481       .  S
C99         C337   1.468       .  S
C100        C349   1.471       .  S
C101        C313   1.473       .  S
C102        C325   1.473       .  S
C103        C301   1.468       .  S
C104        C277   1.485       .  S
H105        O106   0.966       .  S
H107        O108   0.966       .  S
O108      Eu2106   2.352       .  S
O108      Eu2110   2.349       .  S
O109        C120   1.291       .  A
O109       Eu145   2.457       .  S
O110        C121   1.290       .  A
O110       Eu144   2.455       .  S
O111        C122   1.291       .  A
O111       Eu117   2.464       .  S
O112        C123   1.292       .  A
O112      Eu1125   2.461   1_545  S
O113        C123   1.292       .  A
O113       Eu147   2.464       .  S
O114        C122   1.293       .  A
O114       Eu146   2.468       .  S
O115        C121   1.288       .  A
O115       Eu117   2.442       .  S
O116        C120   1.288       .  A
O116       Eu117   2.438       .  S
Eu117      O1120   2.461       .  S
Eu117       O119   2.346       .  S
Eu117       O125   2.349       .  S
Eu117      O1135   2.357       .  S
Eu117      O1126   2.350       .  S
O118       Eu147   2.349       .  S
O118      Eu1125   2.350   1_545  S
O118      Eu1152   2.349       .  S
O119       Eu145   2.355       .  S
O119       Eu146   2.350       .  S
C120       C1456   1.472       .  S
C121       C1441   1.467       .  S
C122        C229   1.493       .  S
C123        C217   1.485       .  S
H124        O125   0.966       .  S
O125       Eu146   2.354       .  S
O125       Eu144   2.356       .  S
H126        O127   0.966       .  S
O127       Eu147   2.346       .  S
O127      Eu1125   2.357   1_545  S
O127      Eu1153   2.345       .  S
O128        C151   1.292       .  A
O128       Eu144   2.461       .  S
O129        C152   1.292       .  A
O129       Eu145   2.458       .  S
O130        C153   1.290       .  A
O130       Eu146   2.454       .  S
O131        C154   1.288       .  A
O131       Eu147   2.444       .  S
O132        C155   1.288       .  A
O132       Eu147   2.443       .  S
O133        C156   1.291       .  A
O133       Eu146   2.459       .  S
O134        C157   1.292       .  A
O134       Eu148   2.464       .  S
O135        C158   1.292       .  A
O135      Eu1156   2.461       .  S
O136        C157   1.292       .  A
O136       Eu146   2.465       .  S
O137        C158   1.290       .  A
O137       Eu147   2.451       .  S
O138        C153   1.290       .  A
O138       Eu144   2.448       .  S
O139        C156   1.290       .  A
O139       Eu145   2.447       .  S
O140        C155   1.295       .  A
O140      Eu1153   2.478       .  S
O141        C154   1.291       .  A
O141      Eu1152   2.454       .  S
O142        C151   1.287       .  A
O142       Eu148   2.438       .  S
O143        C152   1.288       .  A
O143       Eu148   2.438       .  S
Eu144      O1149   2.454       .  S
Eu144       O150   2.354       .  S
Eu144      O1126   2.349       .  S
Eu144      O1170   2.346       .  S
Eu145      O1148   2.479       .  S
Eu145       O160   2.357       .  S
Eu145      O1135   2.345       .  S
Eu145      O1157   2.346       .  S
Eu146       O160   2.349       .  S
Eu146       O150   2.353       .  S
Eu147       O149   2.351       .  S
Eu147       O162   2.350       .  S
Eu148      O1143   2.461       .  S
Eu148       O160   2.349       .  S
Eu148       O150   2.348       .  S
Eu148      O1157   2.353       .  S
Eu148      O1170   2.352       .  S
O149      Eu1153   2.346       .  S
O149      Eu1156   2.353       .  S
C151       C1432   1.472       .  S
C152       C1420   1.475       .  S
C153        C304   1.465       .  S
C154        C292   1.478       .  S
C155        C268   1.482       .  S
C156        C280   1.480       .  S
C157        C241   1.486       .  S
C158        C253   1.477       .  S
H159        O160   0.966       .  S
H161        O162   0.965       .  S
O162      Eu1152   2.346       .  S
O162      Eu1156   2.352       .  S
O163        C174   1.288       .  A
O163       Eu199   2.442       .  S
O164        C175   1.289       .  A
O164       Eu198   2.448       .  S
O165        C176   1.291       .  A
O165       Eu675   2.456   1_554  S
O166        C177   1.290       .  A
O166       Eu171   2.454       .  S
O167        C177   1.290       .  A
O167       Eu201   2.454       .  S
O168        C176   1.290       .  A
O168       Eu200   2.453       .  S
O169        C175   1.293       .  A
O169       Eu171   2.463       .  S
O170        C174   1.293       .  A
O170       Eu171   2.472       .  S
Eu171       O669   2.457       .  S
Eu171       O181   2.355       .  S
Eu171       O172   2.355       .  S
Eu171       O677   2.348       .  S
Eu171       O683   2.350       .  S
O172       Eu201   2.347       .  S
O172       Eu198   2.355       .  S
O173       Eu200   2.351       .  S
O173       Eu675   2.348   1_554  S
O173       Eu703   2.347   1_554  S
C174        C901   1.480       .  S
C175        C889   1.482       .  S
C176        C328   1.470       .  S
C177        C340   1.469       .  S
H178        O179   0.968       .  S
O179       Eu200   2.344       .  S
O179       Eu675   2.351   1_554  S
O179       Eu702   2.352       .  S
H180        O181   0.966       .  S
O181       Eu199   2.356       .  S
O181       Eu201   2.358       .  S
O182        C205   1.292       .  A
O182       Eu198   2.465       .  S
O183        C206   1.287       .  A
O183       Eu199   2.437       .  S
O184        C207   1.292       .  A
O184       Eu200   2.468       .  S
O185        C208   1.291       .  A
O185       Eu201   2.458       .  S
O186        C209   1.292       .  A
O186       Eu201   2.463       .  S
O187        C210   1.292       .  A
O187       Eu200   2.461       .  S
O188        C211   1.291       .  A
O188       Eu706   2.453       .  S
O189        C212   1.289       .  A
O189       Eu202   2.446       .  S
O190        C211   1.289       .  A
O190       Eu200   2.449       .  S
O191        C212   1.289       .  A
O191       Eu201   2.449       .  S
O192        C207   1.293       .  A
O192       Eu702   2.464       .  S
O193        C210   1.291       .  A
O193       Eu703   2.462   1_554  S
O194        C209   1.292       .  A
O194       Eu199   2.463       .  S
O195        C208   1.292       .  A
O195       Eu198   2.464       .  S
O196        C205   1.290       .  A
O196       Eu202   2.452       .  S
O197        C206   1.291       .  A
O197       Eu202   2.459       .  S
Eu198       O696   2.463       .  S
Eu198       O216   2.350       .  S
Eu198       O683   2.352       .  S
Eu198       O708   2.350       .  S
Eu199       O697   2.462       .  S
Eu199       O203   2.345       .  S
Eu199       O677   2.347       .  S
Eu199       O718   2.355       .  S
Eu200       O214   2.355       .  S
Eu200       O204   2.354       .  S
Eu201       O203   2.351       .  S
Eu201       O216   2.353       .  S
Eu202       O692   2.456       .  S
Eu202       O203   2.348       .  S
Eu202       O216   2.355       .  S
Eu202       O718   2.350       .  S
Eu202       O708   2.354       .  S
O204       Eu702   2.350       .  S
O204       Eu706   2.354       .  S
C205        C865   1.477       .  S
C206        C877   1.470       .  S
C207        C232   1.495       .  S
C208        C244   1.485       .  S
C209        C256   1.480       .  S
C210        C220   1.484       .  S
C211        C316   1.475       .  S
C212        C352   1.471       .  S
H213        O214   0.966       .  S
O214       Eu703   2.355   1_554  S
O214       Eu706   2.350       .  S
H215        O216   0.966       .  S
C217        C218   1.406       .  A
C217        C222   1.416       .  A
C218        C219   1.401       .  A
C218        H227   1.084       .  S
C219        C220   1.416       .  A
C219        S223   1.804       .  S
C220        C221   1.405       .  A
C221        C222   1.400       .  A
C221        H228   1.084       .  S
C222        S224   1.805       .  S
S223        H226   1.407       .  S
S224        H225   1.407       .  S
C229        C230   1.407       .  A
C229        C234   1.417       .  A
C230        C231   1.404       .  A
C230        H239   1.084       .  S
C231        C232   1.419       .  A
C231        S235   1.803       .  S
C232        C233   1.406       .  A
C233        C234   1.399       .  A
C233        H240   1.082       .  S
C234        S236   1.804       .  S
S235        H238   1.406       .  S
S236        H237   1.408       .  S
C241        C242   1.405       .  A
C241        C246   1.416       .  A
C242        C243   1.400       .  A
C242        H251   1.084       .  S
C243        C244   1.416       .  A
C243        S247   1.805       .  S
C244        C245   1.405       .  A
C245        C246   1.402       .  A
C245        H252   1.084       .  S
C246        S248   1.805       .  S
S247        H250   1.407       .  S
S248        H249   1.407       .  S
C253        C254   1.403       .  A
C253        C258   1.415       .  A
C254        C255   1.400       .  A
C254        H263   1.084       .  S
C255        C256   1.415       .  A
C255        S259   1.805       .  S
C256        C257   1.404       .  A
C257        C258   1.401       .  A
C257        H264   1.084       .  S
C258        S260   1.806       .  S
S259        H262   1.407       .  S
S260        H261   1.407       .  S
C265        C266   1.403       .  A
C265        C270   1.414       .  A
C266        C267   1.402       .  A
C266        H275   1.084       .  S
C267        C268   1.418       .  A
C267        S271   1.805       .  S
C268        C269   1.403       .  A
C269        C270   1.401       .  A
C269        H276   1.084       .  S
C270        S272   1.801       .  S
S271        H274   1.406       .  S
S272        H273   1.407       .  S
C277        C278   1.405       .  A
C277        C282   1.417       .  A
C278        C279   1.399       .  A
C278        H287   1.084       .  S
C279        C280   1.414       .  A
C279        S283   1.804       .  S
C280        C281   1.404       .  A
C281        C282   1.397       .  A
C281        H288   1.084       .  S
C282        S284   1.799       .  S
S283        H286   1.407       .  S
S284        H285   1.407       .  S
C289        C290   1.402       .  A
C289        C294   1.413       .  A
C290        C291   1.396       .  A
C290        H299   1.082       .  S
C291        C292   1.416       .  A
C291        S295   1.804       .  S
C292        C293   1.403       .  A
C293        C294   1.396       .  A
C293        H300   1.084       .  S
C294        S296   1.798       .  S
S295        H298   1.407       .  S
S296        H297   1.409       .  S
C301        C302   1.402       .  A
C301        C306   1.410       .  A
C302        C303   1.399       .  A
C302        H311   1.084       .  S
C303        C304   1.413       .  A
C303        S307   1.806       .  S
C304        C305   1.401       .  A
C305        C306   1.396       .  A
C305        H312   1.084       .  S
C306        S308   1.802       .  S
S307        H310   1.406       .  S
S308        H309   1.407       .  S
C313        C314   1.403       .  A
C313        C318   1.414       .  A
C314        C315   1.399       .  A
C314        H323   1.084       .  S
C315        C316   1.416       .  A
C315        S319   1.805       .  S
C316        C317   1.402       .  A
C317        C318   1.395       .  A
C317        H324   1.084       .  S
C318        S320   1.803       .  S
S319        H322   1.407       .  S
S320        H321   1.407       .  S
C325        C326   1.403       .  A
C325        C330   1.412       .  A
C326        C327   1.400       .  A
C326        H335   1.084       .  S
C327        C328   1.413       .  A
C327        S331   1.805       .  S
C328        C329   1.402       .  A
C329        C330   1.398       .  A
C329        H336   1.084       .  S
C330        S332   1.801       .  S
S331        H334   1.405       .  S
S332        H333   1.406       .  S
C337        C338   1.404       .  A
C337        C342   1.411       .  A
C338        C339   1.400       .  A
C338        H347   1.084       .  S
C339        C340   1.413       .  A
C339        S343   1.805       .  S
C340        C341   1.402       .  A
C341        C342   1.395       .  A
C341        H348   1.084       .  S
C342        S344   1.806       .  S
S343        H346   1.407       .  S
S344        H345   1.407       .  S
C349        C350   1.403       .  A
C349        C354   1.415       .  A
C350        C351   1.393       .  A
C350        H359   1.084       .  S
C351        C352   1.413       .  A
C351        S355   1.804       .  S
C352        C353   1.404       .  A
C353        C354   1.397       .  A
C353        H360   1.084       .  S
C354        S356   1.806       .  S
S355        H358   1.406       .  S
S356        H357   1.407       .  S
C361        C709   1.475       .  S
C361        C366   1.411       .  A
C361        C866   1.405   1_554  A
C362        C363   1.401       .  A
C362        C865   1.405       .  A
C362        H371   1.084       .  S
C363        C868   1.416       .  A
C363        S367   1.806       .  S
C364        C365   1.400   1_556  A
C364        C867   1.416       .  A
C365        C366   1.395       .  A
C365        H372   1.084       .  S
C366        S368   1.801       .  S
S367        H370   1.406       .  S
S368        H369   1.407       .  S
C373        C710   1.469       .  S
C373        C378   1.414   1_556  A
C373        C878   1.400       .  A
C374        C375   1.395       .  A
C374        C877   1.400       .  A
C374        H383   1.084       .  S
C375        C880   1.412       .  A
C375        S379   1.799       .  S
C376        C377   1.403   1_556  A
C376        C879   1.412       .  A
C377        C378   1.398       .  A
C377        H384   1.084       .  S
C378        S380   1.805       .  S
S379        H382   1.408       .  S
S380        H381   1.407       .  S
C385        C679   1.483       .  S
C385        C390   1.416       .  A
C385        C890   1.401   1_554  A
C386        C387   1.396       .  A
C386        C889   1.400       .  A
C386        H395   1.084       .  S
C387        C892   1.417       .  A
C387        S391   1.791       .  S
C388        C389   1.404   1_556  A
C388        C891   1.418       .  A
C389        C390   1.401       .  A
C389        H396   1.081       .  S
C390        S392   1.803       .  S
S391        H394   1.408       .  S
S392        H393   1.409       .  S
C397        C678   1.479       .  S
C397        C398   1.404   1_556  A
C397        C906   1.415       .  A
C398        C399   1.401       .  A
C398        H407   1.084       .  S
C399        C400   1.414       .  A
C399        S403   1.802       .  S
C400        C905   1.404   1_554  A
C401        C402   1.398       .  A
C401        C904   1.404       .  A
C401        H408   1.084       .  S
C402        C901   1.416       .  A
C402        S404   1.805       .  S
S403        H406   1.407       .  S
S404        H405   1.407       .  S
C409        C414   1.416       .  A
C409       C1418   1.405   1_545  A
C410        C411   1.397       .  A
C410       C1417   1.405       .  A
C410        H419   1.084       .  S
C411       C1420   1.415       .  A
C411        S415   1.805       .  S
C412       C1160   1.475       .  S
C412        C413   1.402   1_565  A
C412       C1419   1.415       .  A
C413        C414   1.396       .  A
C413        H420   1.084       .  S
C414        S416   1.804       .  S
S415        H418   1.407       .  S
S416        H417   1.407       .  S
C421        C422   1.403   1_565  A
C421       C1434   1.414       .  A
C422        C423   1.397       .  A
C422        H431   1.084       .  S
C423        C424   1.416       .  A
C423        S427   1.806       .  S
C424       C1159   1.472       .  S
C424       C1433   1.402   1_545  A
C425        C426   1.395       .  A
C425       C1432   1.402       .  A
C425        H432   1.084       .  S
C426       C1429   1.414       .  A
C426        S428   1.805       .  S
S427        H430   1.406       .  S
S428        H429   1.408       .  S
C433       C1129   1.467       .  S
C433        C438   1.412       .  A
C433       C1442   1.402   1_545  A
C434        C435   1.396       .  A
C434       C1441   1.402       .  A
C434        H443   1.084       .  S
C435       C1444   1.411       .  A
C435        S439   1.800       .  S
C436        C437   1.402   1_565  A
C436       C1443   1.411       .  A
C437        C438   1.398       .  A
C437        H444   1.084       .  S
C438        S440   1.805       .  S
S439        H442   1.405       .  S
S440        H441   1.407       .  S
C445        C446   1.404   1_565  A
C445       C1458   1.414       .  A
C446        C447   1.396       .  A
C446        H455   1.084       .  S
C447        C448   1.415   1_545  A
C447        S451   1.805       .  S
C448       C1128   1.472       .  S
C448       C1457   1.403       .  A
C449        C450   1.396       .  A
C449       C1456   1.403       .  A
C449        H456   1.084       .  S
C450       C1453   1.414       .  A
C450        S452   1.804       .  S
S451        H454   1.407       .  S
S452        H453   1.407       .  S
C457        C458   1.408   1_455  A
C457       C2478   1.419       .  A
C458        C459   1.402       .  A
C458        H467   1.082       .  S
C459        C460   1.419       .  A
C459        S463   1.804       .  S
C460       C2477   1.405   1_655  A
C461        C462   1.400       .  A
C461       C2476   1.405       .  A
C461        H468   1.080       .  S
C462       C2473   1.419       .  A
C462        S464   1.804       .  S
S463        H466   1.407       .  S
S464        H465   1.408       .  S
C469        C474   1.416   1_455  A
C469       C2486   1.406       .  A
C470        C471   1.402       .  A
C470       C2485   1.406       .  A
C470        H479   1.076       .  S
C471       C2488   1.415       .  A
C471        S475   1.811       .  S
C472        C473   1.404   1_455  A
C472       C2487   1.415       .  A
C473        C474   1.396       .  A
C473        H480   1.080       .  S
C474        S476   1.803       .  S
S475        H478   1.405       .  S
S476        H477   1.408       .  S
C481        C482   1.404   1_655  A
C481       C2502   1.415       .  A
C482        C483   1.396       .  A
C482        H491   1.082       .  S
C483        C484   1.416   1_455  A
C483        S487   1.805       .  S
C484       C2501   1.405       .  A
C485        C486   1.398       .  A
C485       C2500   1.405       .  A
C485        H492   1.084       .  S
C486       C2497   1.415       .  A
C486        S488   1.804       .  S
S487        H490   1.406       .  S
S488        H489   1.408       .  S
C493        C498   1.420   1_655  A
C493       C2510   1.408       .  A
C494        C495   1.400       .  A
C494       C2509   1.408       .  A
C494        H503   1.083       .  S
C495       C2512   1.419       .  A
C495        S499   1.804       .  S
C496        C497   1.406   1_655  A
C496       C2511   1.419       .  A
C497        C498   1.398       .  A
C497        H504   1.083       .  S
C498        S500   1.803       .  S
S499        H502   1.408       .  S
S500        H501   1.408       .  S
O505        C516   1.289       .  A
O505       Eu541   2.455   1_545  S
O506        C517   1.290   1_655  A
O506       Eu540   2.459   1_645  S
O507        C518   1.293       .  A
O507       Eu513   2.471   1_455  S
O508        C519   1.291       .  A
O508      Eu2529   2.457       .  S
O509        C519   1.291       .  A
O509       Eu543   2.454   1_545  S
O510        C518   1.291       .  A
O510       Eu542   2.452       .  S
O511        C517   1.293       .  A
O512        C516   1.292       .  A
O512       Eu513   2.457       .  S
Eu513      O2524   2.457       .  S
Eu513      O2539   2.359       .  S
Eu513       O515   2.348   1_655  S
Eu513      O2026   2.352       .  S
O514      Eu2025   2.352   1_556  S
O514      Eu2556   2.345   1_545  S
O515       Eu541   2.346   1_445  S
O515       Eu542   2.352       .  S
C516       C1000   1.495       .  S
C517        C961   1.497       .  S
C518        C904   1.482       .  S
C519        C880   1.473       .  S
H520        O521   0.966       .  S
O521       Eu540   2.352   1_545  S
H522        O523   0.966       .  S
O523      Eu2529   2.359       .  S
O523      Eu2557   2.346   1_545  S
O523       Eu543   2.354   1_545  S
O524        C547   1.290       .  A
O524      Eu1548   2.457       .  S
O525        C548   1.287       .  A
O525      Eu1549   2.439       .  S
O526        C549   1.290       .  A
O527        C550   1.291       .  A
O528        C551   1.290       .  A
O528       Eu543   2.451       .  S
O529        C552   1.291       .  A
O529       Eu542   2.455   1_565  S
O530        C553   1.291       .  A
O530       Eu544   2.459       .  S
O531        C554   1.287       .  A
O531      Eu2560   2.433       .  S
O532        C553   1.293       .  A
O532      Eu1550   2.469       .  S
O533        C554   1.294       .  A
O533      Eu1551   2.470       .  S
O534        C549   1.289   1_565  A
O534       Eu540   2.444       .  S
O535        C552   1.288   1_545  A
O535       Eu541   2.443   1_445  S
O536        C551   1.289       .  A
O536      Eu2557   2.448       .  S
O537        C550   1.289       .  A
O537      Eu2556   2.452       .  S
O538        C547   1.291       .  A
O539        C548   1.293   1_455  A
O539       Eu544   2.467       .  S
Eu540      O1532   2.457       .  S
Eu540      O2553   2.452   1_455  S
Eu540      O2530   2.345   1_465  S
Eu540      O3582   2.344   1_455  S
Eu540      O1554   2.351       .  S
Eu541      O1533   2.439       .  S
Eu541      O2552   2.448       .  S
Eu541      O2539   2.346   1_565  S
Eu541      O3569   2.348       .  S
Eu541      O1564   2.359   1_655  S
Eu542      O1540   2.469   1_545  S
Eu542      O1564   2.351   1_545  S
Eu542      O1050   2.346   1_545  S
Eu543      O1541   2.470       .  S
Eu543      O1553   2.347       .  S
Eu543      O1062   2.342       .  S
Eu544      O2547   2.433   1_455  S
Eu544      O2561   2.354   1_455  S
Eu544       O556   2.344       .  S
Eu544      O2070   2.355   1_455  S
O545      Eu3565   2.348       .  S
O545      Eu1551   2.347       .  S
O545      Eu2560   2.354       .  S
O546      Eu1548   2.351       .  S
O546      Eu1046   2.347   1_556  S
C547        C973   1.492       .  S
C548        C988   1.479       .  S
C549        C925   1.472   1_545  S
C550        C913   1.480   1_565  S
C551        C949   1.474       .  S
C552        C940   1.465       .  S
C553        C892   1.492       .  S
C554        C868   1.472       .  S
H555        O556   0.965       .  S
O556      Eu1549   2.359   1_455  S
O556      Eu1550   2.351       .  S
H557        O558   0.965       .  S
O558      Eu3564   2.344       .  S
O558      Eu1047   2.343   1_556  S
O558      Eu2056   2.354   1_556  S
O559        C570   1.290       .  A
O559       Eu595   2.459       .  S
O560        C571   1.290   1_455  A
O560       Eu594   2.456       .  S
O561        C572   1.292       .  A
O561       Eu567   2.457   1_455  S
O562        C573   1.293       .  A
O562      Eu2583   2.466       .  S
O563        C573   1.293       .  A
O563       Eu597   2.469       .  S
O564        C572   1.290       .  A
O564       Eu596   2.445       .  S
O565        C571   1.294       .  A
O565       Eu567   2.469       .  S
O566        C570   1.293   1_455  A
O566       Eu567   2.461   1_455  S
Eu567      O2578   2.466       .  S
Eu567      O2593   2.347       .  S
Eu567       O569   2.357   1_655  S
Eu567      O2584   2.347       .  S
Eu567       O575   2.355   1_655  S
O568      Eu2583   2.347       .  S
O568       Eu597   2.352       .  S
O568      Eu2610   2.350       .  S
O569       Eu595   2.347   1_455  S
O569       Eu596   2.351       .  S
C570        C997   1.497       .  S
C571        C964   1.496       .  S
C572        C793   1.477       .  S
C573        C769   1.484       .  S
H574        O575   0.965       .  S
O575       Eu596   2.361       .  S
O575       Eu594   2.342       .  S
H576        O577   0.965       .  S
O577      Eu2583   2.347       .  S
O577      Eu2611   2.348       .  S
O577       Eu597   2.352       .  S
O578        C601   1.288       .  A
O578       Eu594   2.446       .  S
O579        C602   1.291       .  A
O579       Eu595   2.457       .  S
O580        C603   1.289       .  A
O580       Eu596   2.452       .  S
O581        C604   1.291       .  A
O581       Eu597   2.451       .  S
O582        C605   1.291       .  A
O582       Eu597   2.458       .  S
O583        C606   1.292       .  A
O583       Eu596   2.466       .  S
O584        C607   1.289       .  A
O584       Eu598   2.447       .  S
O585        C608   1.289       .  A
O585      Eu2614   2.451       .  S
O586        C607   1.291       .  A
O586       Eu596   2.461       .  S
O587        C608   1.293       .  A
O587       Eu597   2.468       .  S
O588        C603   1.290       .  A
O588       Eu594   2.450       .  S
O589        C606   1.290       .  A
O589       Eu595   2.453   1_455  S
O590        C605   1.289       .  A
O590      Eu2611   2.442       .  S
O591        C604   1.287       .  A
O591      Eu2610   2.434       .  S
O592        C601   1.292       .  A
O592       Eu598   2.458       .  S
O593        C602   1.290       .  A
O593       Eu598   2.449   1_655  S
Eu594      O2607   2.434   1_455  S
Eu594      O2584   2.350   1_455  S
Eu594      O2628   2.354   1_455  S
Eu594       O600   2.344       .  S
Eu595      O2606   2.442       .  S
Eu595      O2593   2.348       .  S
Eu595      O2615   2.348       .  S
Eu595       O610   2.351   1_655  S
Eu596       O610   2.354       .  S
Eu596       O600   2.345       .  S
Eu597       O599   2.349       .  S
Eu597       O612   2.355       .  S
Eu598      O2601   2.451   1_455  S
Eu598      O2615   2.347   1_455  S
Eu598       O610   2.357       .  S
Eu598      O2628   2.350   1_455  S
Eu598       O600   2.345       .  S
O599      Eu2611   2.348       .  S
O599      Eu2614   2.347       .  S
C601        C976   1.489       .  S
C602        C985   1.482       .  S
C603        C841   1.468       .  S
C604        C853   1.472       .  S
C605        C817   1.473       .  S
C606        C829   1.473       .  S
C607        C805   1.467       .  S
C608        C781   1.486       .  S
H609        O610   0.966       .  S
H611        O612   0.966       .  S
O612      Eu2610   2.354       .  S
O612      Eu2614   2.351       .  S
O613        C624   1.292       .  A
O613       Eu649   2.460       .  S
O614        C625   1.290       .  A
O614       Eu648   2.456       .  S
O615        C626   1.291       .  A
O615       Eu621   2.464       .  S
O616        C627   1.292       .  A
O616      Eu1629   2.460   1_545  S
O617        C627   1.292       .  A
O617       Eu651   2.465       .  S
O618        C626   1.293       .  A
O618       Eu650   2.467       .  S
O619        C625   1.288       .  A
O619       Eu621   2.443       .  S
O620        C624   1.287       .  A
O620       Eu621   2.436       .  S
Eu621      O1624   2.459       .  S
Eu621      O1639   2.358       .  S
Eu621       O623   2.346       .  S
Eu621      O1630   2.350       .  S
Eu621       O629   2.348       .  S
O622      Eu1629   2.350   1_545  S
O622       Eu651   2.349       .  S
O622      Eu1656   2.348       .  S
O623       Eu649   2.355       .  S
O623       Eu650   2.349       .  S
C624       C1960   1.472       .  S
C625       C1945   1.467       .  S
C626        C733   1.493       .  S
C627        C721   1.485       .  S
H628        O629   0.966       .  S
O629       Eu650   2.355       .  S
O629       Eu648   2.356       .  S
H630        O631   0.966       .  S
O631      Eu1629   2.358   1_545  S
O631      Eu1657   2.346       .  S
O631       Eu651   2.346       .  S
O632        C655   1.292       .  A
O632       Eu648   2.461       .  S
O633        C656   1.293       .  A
O633       Eu649   2.462       .  S
O634        C657   1.290       .  A
O634       Eu650   2.453       .  S
O635        C658   1.288       .  A
O635       Eu651   2.443       .  S
O636        C659   1.288       .  A
O636       Eu651   2.444       .  S
O637        C660   1.292       .  A
O637       Eu650   2.462       .  S
O638        C661   1.292       .  A
O638       Eu652   2.465       .  S
O639        C662   1.292       .  A
O639      Eu1660   2.463       .  S
O640        C661   1.293       .  A
O640       Eu650   2.466       .  S
O641        C662   1.290       .  A
O641       Eu651   2.451       .  S
O642        C657   1.289       .  A
O642       Eu648   2.448       .  S
O643        C660   1.290       .  A
O643       Eu649   2.446       .  S
O644        C659   1.295       .  A
O644      Eu1657   2.477       .  S
O645        C658   1.291       .  A
O645      Eu1656   2.454       .  S
O646        C655   1.288       .  A
O646       Eu652   2.441       .  S
O647        C656   1.288       .  A
O647       Eu652   2.438       .  S
Eu648      O1653   2.454       .  S
Eu648      O1630   2.348       .  S
Eu648      O1674   2.348       .  S
Eu648       O654   2.354       .  S
Eu649      O1652   2.477       .  S
Eu649      O1639   2.346       .  S
Eu649      O1661   2.346       .  S
Eu649       O664   2.358       .  S
Eu650       O664   2.349       .  S
Eu650       O654   2.353       .  S
Eu651       O653   2.350       .  S
Eu651       O666   2.351       .  S
Eu652      O1647   2.463       .  S
Eu652      O1661   2.354       .  S
Eu652       O664   2.350       .  S
Eu652      O1674   2.352       .  S
Eu652       O654   2.348       .  S
O653      Eu1657   2.346       .  S
O653      Eu1660   2.354       .  S
C655       C1936   1.472       .  S
C656       C1924   1.477       .  S
C657        C808   1.465       .  S
C658        C796   1.477       .  S
C659        C772   1.482       .  S
C660        C784   1.482       .  S
C661        C745   1.488       .  S
C662        C757   1.478       .  S
H663        O664   0.966       .  S
H665        O666   0.965       .  S
O666      Eu1656   2.348       .  S
O666      Eu1660   2.352       .  S
O667        C678   1.288       .  A
O667       Eu703   2.443       .  S
O668        C679   1.290   1_556  A
O668       Eu702   2.451   1_556  S
O669        C680   1.291       .  A
O670        C681   1.290       .  A
O670       Eu675   2.454       .  S
O671        C681   1.289       .  A
O671       Eu705   2.450       .  S
O672        C680   1.290       .  A
O672       Eu704   2.453       .  S
O673        C679   1.293   1_556  A
O673       Eu675   2.460       .  S
O674        C678   1.293       .  A
O674       Eu675   2.472       .  S
Eu675       O685   2.354       .  S
Eu675       O676   2.355       .  S
O676       Eu705   2.347       .  S
O676       Eu702   2.355   1_556  S
O677       Eu704   2.351       .  S
C680        C832   1.471       .  S
C681        C844   1.468       .  S
H682        O683   0.967       .  S
O683       Eu704   2.346       .  S
H684        O685   0.967       .  S
O685       Eu703   2.356       .  S
O685       Eu705   2.358       .  S
O686        C709   1.293       .  A
O686       Eu702   2.467       .  S
O687        C710   1.287       .  A
O687       Eu703   2.437       .  S
O688        C711   1.292       .  A
O688       Eu704   2.468       .  S
O689        C712   1.291       .  A
O689       Eu705   2.459       .  S
O690        C713   1.292       .  A
O690       Eu705   2.463       .  S
O691        C714   1.292       .  A
O691       Eu704   2.461       .  S
O692        C715   1.291       .  A
O693        C716   1.289       .  A
O693       Eu706   2.443   1_556  S
O694        C715   1.290       .  A
O694       Eu704   2.451       .  S
O695        C716   1.289       .  A
O695       Eu705   2.447       .  S
O696        C711   1.293       .  A
O697        C714   1.292       .  A
O698        C713   1.292       .  A
O698       Eu703   2.462       .  S
O699        C712   1.292       .  A
O699       Eu702   2.464   1_556  S
O700        C709   1.289       .  A
O700       Eu706   2.449       .  S
O701        C710   1.291       .  A
O701       Eu706   2.457   1_556  S
Eu702       O720   2.350   1_554  S
Eu703       O707   2.345       .  S
Eu704       O718   2.355       .  S
Eu704       O708   2.355       .  S
Eu705       O707   2.349       .  S
Eu705       O720   2.352       .  S
Eu706       O707   2.346   1_554  S
Eu706       O720   2.354   1_554  S
C711        C736   1.496       .  S
C712        C748   1.485       .  S
C713        C760   1.480       .  S
C714        C724   1.484       .  S
C715        C820   1.476       .  S
C716        C856   1.471       .  S
H717        O718   0.966       .  S
H719        O720   0.966       .  S
C721        C722   1.406       .  A
C721        C726   1.415       .  A
C722        C723   1.402       .  A
C722        H731   1.084       .  S
C723        C724   1.416       .  A
C723        S727   1.804       .  S
C724        C725   1.405       .  A
C725        C726   1.400       .  A
C725        H732   1.084       .  S
C726        S728   1.804       .  S
S727        H730   1.407       .  S
S728        H729   1.408       .  S
C733        C734   1.407       .  A
C733        C738   1.417       .  A
C734        C735   1.404       .  A
C734        H743   1.084       .  S
C735        C736   1.419       .  A
C735        S739   1.803       .  S
C736        C737   1.406       .  A
C737        C738   1.399       .  A
C737        H744   1.081       .  S
C738        S740   1.804       .  S
S739        H742   1.407       .  S
S740        H741   1.408       .  S
C745        C746   1.406       .  A
C745        C750   1.417       .  A
C746        C747   1.401       .  A
C746        H755   1.084       .  S
C747        C748   1.416       .  A
C747        S751   1.805       .  S
C748        C749   1.405       .  A
C749        C750   1.402       .  A
C749        H756   1.084       .  S
C750        S752   1.804       .  S
S751        H754   1.407       .  S
S752        H753   1.407       .  S
C757        C758   1.404       .  A
C757        C762   1.415       .  A
C758        C759   1.400       .  A
C758        H767   1.084       .  S
C759        C760   1.415       .  A
C759        S763   1.805       .  S
C760        C761   1.404       .  A
C761        C762   1.400       .  A
C761        H768   1.084       .  S
C762        S764   1.806       .  S
S763        H766   1.407       .  S
S764        H765   1.407       .  S
C769        C770   1.404       .  A
C769        C774   1.415       .  A
C770        C771   1.402       .  A
C770        H779   1.084       .  S
C771        C772   1.418       .  A
C771        S775   1.805       .  S
C772        C773   1.402       .  A
C773        C774   1.400       .  A
C773        H780   1.084       .  S
C774        S776   1.801       .  S
S775        H778   1.406       .  S
S776        H777   1.407       .  S
C781        C782   1.406       .  A
C781        C786   1.417       .  A
C782        C783   1.399       .  A
C782        H791   1.084       .  S
C783        C784   1.414       .  A
C783        S787   1.804       .  S
C784        C785   1.404       .  A
C785        C786   1.398       .  A
C785        H792   1.084       .  S
C786        S788   1.799       .  S
S787        H790   1.408       .  S
S788        H789   1.407       .  S
C793        C794   1.402       .  A
C793        C798   1.412       .  A
C794        C795   1.395       .  A
C794        H803   1.081       .  S
C795        C796   1.415       .  A
C795        S799   1.804       .  S
C796        C797   1.403       .  A
C797        C798   1.396       .  A
C797        H804   1.084       .  S
C798        S800   1.798       .  S
S799        H802   1.407       .  S
S800        H801   1.408       .  S
C805        C806   1.402       .  A
C805        C810   1.410       .  A
C806        C807   1.399       .  A
C806        H815   1.084       .  S
C807        C808   1.412       .  A
C807        S811   1.806       .  S
C808        C809   1.401       .  A
C809        C810   1.397       .  A
C809        H816   1.084       .  S
C810        S812   1.802       .  S
S811        H814   1.407       .  S
S812        H813   1.407       .  S
C817        C818   1.402       .  A
C817        C822   1.414       .  A
C818        C819   1.399       .  A
C818        H827   1.084       .  S
C819        C820   1.416       .  A
C819        S823   1.805       .  S
C820        C821   1.402       .  A
C821        C822   1.396       .  A
C821        H828   1.084       .  S
C822        S824   1.803       .  S
S823        H826   1.407       .  S
S824        H825   1.407       .  S
C829        C830   1.402       .  A
C829        C834   1.412       .  A
C830        C831   1.400       .  A
C830        H839   1.084       .  S
C831        C832   1.413       .  A
C831        S835   1.806       .  S
C832        C833   1.402       .  A
C833        C834   1.399       .  A
C833        H840   1.084       .  S
C834        S836   1.801       .  S
S835        H838   1.405       .  S
S836        H837   1.406       .  S
C841        C842   1.404       .  A
C841        C846   1.411       .  A
C842        C843   1.400       .  A
C842        H851   1.084       .  S
C843        C844   1.413       .  A
C843        S847   1.805       .  S
C844        C845   1.402       .  A
C845        C846   1.395       .  A
C845        H852   1.084       .  S
C846        S848   1.806       .  S
S847        H850   1.407       .  S
S848        H849   1.406       .  S
C853        C854   1.403       .  A
C853        C858   1.416       .  A
C854        C855   1.393       .  A
C854        H863   1.084       .  S
C855        C856   1.413       .  A
C855        S859   1.804       .  S
C856        C857   1.404       .  A
C857        C858   1.397       .  A
C857        H864   1.084       .  S
C858        S860   1.806       .  S
S859        H862   1.407       .  S
S860        H861   1.407       .  S
C865        C870   1.412       .  A
C866        C867   1.401       .  A
C866        H875   1.084       .  S
C867        S871   1.806       .  S
C868        C869   1.400       .  A
C869        C870   1.394       .  A
C869        H876   1.084       .  S
C870        S872   1.799       .  S
S871        H874   1.406       .  S
S872        H873   1.407       .  S
C877        C882   1.415       .  A
C878        C879   1.395       .  A
C878        H887   1.084       .  S
C879        S883   1.799       .  S
C880        C881   1.403       .  A
C881        C882   1.399       .  A
C881        H888   1.084       .  S
C882        S884   1.805       .  S
S883        H886   1.408       .  S
S884        H885   1.407       .  S
C889        C894   1.416       .  A
C890        C891   1.396       .  A
C890        H899   1.084       .  S
C891        S895   1.792       .  S
C892        C893   1.405       .  A
C893        C894   1.402       .  A
C893        H900   1.081       .  S
C894        S896   1.803       .  S
S895        H898   1.408       .  S
S896        H897   1.408       .  S
C901        C902   1.404       .  A
C902        C903   1.401       .  A
C902        H911   1.084       .  S
C903        C904   1.415       .  A
C903        S907   1.801       .  S
C905        C906   1.398       .  A
C905        H912   1.084       .  S
C906        S908   1.805       .  S
S907        H910   1.407       .  S
S908        H909   1.407       .  S
C913       C1922   1.405   1_545  A
C913        C918   1.416       .  A
C914       C1921   1.405       .  A
C914        C915   1.398       .  A
C914        H923   1.084       .  S
C915       C1924   1.416       .  A
C915        S919   1.805       .  S
C916       C1664   1.477       .  S
C916       C1923   1.416       .  A
C916        C917   1.402   1_565  A
C917        C918   1.396       .  A
C917        H924   1.084       .  S
C918        S920   1.804       .  S
S919        H922   1.407       .  S
S920        H921   1.407       .  S
C925        C926   1.403   1_565  A
C925       C1938   1.413       .  A
C926        C927   1.398       .  A
C926        H935   1.084       .  S
C927        C928   1.415       .  A
C927        S931   1.806       .  S
C928       C1663   1.472       .  S
C928       C1937   1.402   1_545  A
C929       C1936   1.402       .  A
C929        C930   1.396       .  A
C929        H936   1.084       .  S
C930       C1933   1.413       .  A
C930        S932   1.805       .  S
S931        H934   1.406       .  S
S932        H933   1.408       .  S
C937       C1633   1.467       .  S
C937       C1946   1.402   1_545  A
C937        C942   1.412       .  A
C938       C1945   1.402       .  A
C938        C939   1.396       .  A
C938        H947   1.084       .  S
C939       C1948   1.411       .  A
C939        S943   1.801       .  S
C940       C1947   1.411       .  A
C940        C941   1.401   1_565  A
C941        C942   1.398       .  A
C941        H948   1.084       .  S
C942        S944   1.805       .  S
S943        H946   1.404       .  S
S944        H945   1.407       .  S
C949        C950   1.404   1_565  A
C949       C1962   1.414       .  A
C950        C951   1.396       .  A
C950        H959   1.084       .  S
C951        C952   1.415   1_545  A
C951        S955   1.805       .  S
C952       C1632   1.472       .  S
C952       C1961   1.403       .  A
C953       C1960   1.402       .  A
C953        C954   1.396       .  A
C953        H960   1.084       .  S
C954       C1957   1.414       .  A
C954        S956   1.804       .  S
S955        H958   1.407       .  S
S956        H957   1.407       .  S
C961        C962   1.407   1_455  A
C961       C2982   1.419       .  A
C962        C963   1.401       .  A
C962        H971   1.082       .  S
C963        C964   1.418       .  A
C963        S967   1.804       .  S
C964       C2981   1.405   1_655  A
C965       C2980   1.405       .  A
C965        C966   1.400       .  A
C965        H972   1.081       .  S
C966       C2977   1.419       .  A
C966        S968   1.804       .  S
S967        H970   1.408       .  S
S968        H969   1.408       .  S
C973       C2990   1.406       .  A
C973        C978   1.416   1_455  A
C974       C2989   1.406       .  A
C974        C975   1.402       .  A
C974        H983   1.076       .  S
C975       C2992   1.416       .  A
C975        S979   1.812       .  S
C976       C2991   1.416       .  A
C976        C977   1.404   1_455  A
C977        C978   1.396       .  A
C977        H984   1.080       .  S
C978        S980   1.803       .  S
S979        H982   1.405       .  S
S980        H981   1.408       .  S
C985        C986   1.404   1_655  A
C985       C3006   1.415       .  A
C986        C987   1.396       .  A
C986        H995   1.082       .  S
C987        C988   1.416   1_455  A
C987        S991   1.806       .  S
C988       C3005   1.404       .  A
C989       C3004   1.404       .  A
C989        C990   1.399       .  A
C989        H996   1.084       .  S
C990       C3001   1.415       .  A
C990        S992   1.804       .  S
S991        H994   1.405       .  S
S992        H993   1.408       .  S
C997       C3014   1.408       .  A
C997       C1002   1.420   1_655  A
C998       C3013   1.408       .  A
C998        C999   1.400       .  A
C998       H1007   1.083       .  S
C999       C3016   1.419       .  A
C999       S1003   1.804       .  S
C1000      C3015   1.419       .  A
C1000      C1001   1.407   1_655  A
C1001      C1002   1.398       .  A
C1001      H1008   1.083       .  S
C1002      S1004   1.803       .  S
S1003      H1006   1.408       .  S
S1004      H1005   1.407       .  S
O1009      C1020   1.288       .  A
O1009     Eu1045   2.453       .  S
O1010      C1021   1.290   1_655  A
O1010     Eu1044   2.462   1_655  S
O1011      C1022   1.293       .  A
O1011     Eu1017   2.470   1_455  S
O1012      C1023   1.292       .  A
O1012     Eu3033   2.459   1_556  S
O1013      C1023   1.291       .  A
O1013     Eu1047   2.454   1_556  S
O1014      C1022   1.291       .  A
O1014     Eu1046   2.453       .  S
O1015      C1021   1.293   1_655  A
O1015     Eu1521   2.467       .  S
O1016      C1020   1.292       .  A
O1016     Eu1017   2.458       .  S
Eu1017     O3028   2.459   1_554  S
Eu1017     O1519   2.467   1_654  S
Eu1017     O3043   2.360       .  S
Eu1017     O1019   2.349   1_655  S
Eu1017     O3538   2.352   1_554  S
Eu1017     O1529   2.352   1_654  S
O1018     Eu3537   2.352       .  S
O1018     Eu1551   2.355       .  S
O1018     Eu3060   2.343       .  S
O1019     Eu1045   2.345   1_455  S
O1019     Eu1046   2.352       .  S
C1020      C1504   1.495       .  S
C1021      C1465   1.498       .  S
C1022      C1408   1.481       .  S
C1023      C1384   1.474       .  S
H1024      O1025   0.966       .  S
O1025     Eu1521   2.353   1_455  S
O1025     Eu1550   2.358       .  S
O1025     Eu1044   2.352       .  S
H1026      O1027   0.966       .  S
O1027     Eu3033   2.360       .  S
O1027     Eu3061   2.348       .  S
O1027     Eu1047   2.356       .  S
O1028      C1051   1.290       .  A
O1029      C1052   1.288       .  A
O1030      C1053   1.291       .  A
O1030     Eu1550   2.453       .  S
O1031      C1054   1.290       .  A
O1031     Eu1551   2.450       .  S
O1032      C1055   1.290       .  A
O1032     Eu1047   2.450       .  S
O1033      C1056   1.291       .  A
O1033     Eu1046   2.456       .  S
O1034      C1057   1.289       .  A
O1034     Eu1048   2.454   1_556  S
O1035      C1058   1.287       .  A
O1035     Eu3064   2.434   1_556  S
O1036      C1057   1.293       .  A
O1037      C1058   1.294       .  A
O1038      C1053   1.289       .  A
O1038     Eu1044   2.441       .  S
O1039      C1056   1.288       .  A
O1039     Eu1045   2.443   1_455  S
O1040      C1055   1.289       .  A
O1040     Eu3061   2.448       .  S
O1041      C1054   1.289       .  A
O1041     Eu3060   2.452       .  S
O1042      C1051   1.291       .  A
O1042     Eu1552   2.455       .  S
O1043      C1052   1.292   1_455  A
O1043     Eu1048   2.462       .  S
Eu1044     O3057   2.451   1_455  S
Eu1044     O3034   2.343   1_455  S
Eu1044     O2070   2.344   1_455  S
Eu1045     O3056   2.448       .  S
Eu1045     O3043   2.348       .  S
Eu1045     O2057   2.347       .  S
Eu1046     O1534   2.452   1_554  S
Eu1046     O1529   2.357   1_554  S
Eu1047     O1535   2.453   1_554  S
Eu1047     O1522   2.355   1_554  S
Eu1048     O3051   2.433   1_454  S
Eu1048     O1546   2.453   1_554  S
Eu1048     O3065   2.351   1_455  S
Eu1048     O1060   2.346       .  S
Eu1048     O3582   2.354   1_454  S
Eu1048     O1554   2.345   1_554  S
O1049     Eu2053   2.347       .  S
O1049     Eu3064   2.351       .  S
O1050     Eu1552   2.345       .  S
C1051      C1477   1.492       .  S
C1052      C1492   1.479       .  S
C1053      C1429   1.473       .  S
C1054      C1417   1.479       .  S
C1055      C1453   1.474       .  S
C1056      C1444   1.467       .  S
C1057      C1396   1.492       .  S
C1058      C1372   1.472       .  S
H1059      O1060   0.965       .  S
H1061      O1062   0.965       .  S
O1062     Eu2052   2.344   1_565  S
O1062     Eu3568   2.355       .  S
O1063      C1074   1.289       .  A
O1063     Eu1099   2.457       .  S
O1064      C1075   1.289   1_455  A
O1064     Eu1098   2.454       .  S
O1065      C1076   1.291       .  A
O1065     Eu1071   2.454   1_455  S
O1066      C1077   1.292       .  A
O1066     Eu3087   2.465       .  S
O1067      C1077   1.293       .  A
O1067     Eu1101   2.468       .  S
O1068      C1076   1.290       .  A
O1068     Eu1100   2.448       .  S
O1069      C1075   1.294       .  A
O1069     Eu1071   2.473       .  S
O1070      C1074   1.293       .  A
O1070     Eu1071   2.463       .  S
Eu1071     O3082   2.465       .  S
Eu1071     O3097   2.348       .  S
Eu1071     O1073   2.356   1_655  S
Eu1071     O3088   2.347       .  S
Eu1071     O1079   2.356   1_655  S
O1072     Eu3087   2.347       .  S
O1072     Eu1101   2.351       .  S
O1072     Eu3114   2.350       .  S
O1073     Eu1099   2.347   1_455  S
O1073     Eu1100   2.350       .  S
C1074      C1501   1.497       .  S
C1075      C1468   1.497       .  S
C1076      C1297   1.479       .  S
C1077      C1273   1.483       .  S
H1078      O1079   0.965       .  S
O1079     Eu1100   2.361       .  S
O1079     Eu1098   2.344       .  S
H1080      O1081   0.965       .  S
O1081     Eu3087   2.348       .  S
O1081     Eu3115   2.349       .  S
O1081     Eu1101   2.352       .  S
O1082      C1105   1.288       .  A
O1082     Eu1098   2.448       .  S
O1083      C1106   1.290       .  A
O1083     Eu1099   2.455       .  S
O1084      C1107   1.289       .  A
O1084     Eu1100   2.453       .  S
O1085      C1108   1.290       .  A
O1085     Eu1101   2.448       .  S
O1086      C1109   1.291       .  A
O1086     Eu1101   2.457       .  S
O1087      C1110   1.292       .  A
O1087     Eu1100   2.466       .  S
O1088      C1111   1.289       .  A
O1088     Eu1102   2.449       .  S
O1089      C1112   1.290       .  A
O1089     Eu3118   2.452       .  S
O1090      C1111   1.291       .  A
O1090     Eu1100   2.461       .  S
O1091      C1112   1.293       .  A
O1091     Eu1101   2.465       .  S
O1092      C1107   1.289       .  A
O1092     Eu1098   2.449       .  S
O1093      C1110   1.289       .  A
O1093     Eu1099   2.452   1_455  S
O1094      C1109   1.288       .  A
O1094     Eu3115   2.442       .  S
O1095      C1108   1.287       .  A
O1095     Eu3114   2.436       .  S
O1096      C1105   1.291       .  A
O1096     Eu1102   2.454       .  S
O1097      C1106   1.289       .  A
O1097     Eu1102   2.445   1_655  S
Eu1098     O3111   2.436   1_455  S
Eu1098     O3088   2.350   1_455  S
Eu1098     O3132   2.352   1_455  S
Eu1098     O1104   2.342       .  S
Eu1099     O3110   2.441       .  S
Eu1099     O3097   2.349       .  S
Eu1099     O3119   2.348       .  S
Eu1099     O1114   2.351   1_655  S
Eu1100     O1114   2.355       .  S
Eu1100     O1104   2.345       .  S
Eu1101     O1103   2.349       .  S
Eu1101     O1116   2.356       .  S
Eu1102     O3105   2.452   1_455  S
Eu1102     O3119   2.348   1_455  S
Eu1102     O1114   2.357       .  S
Eu1102     O3132   2.349   1_455  S
Eu1102     O1104   2.343       .  S
O1103     Eu3115   2.348       .  S
O1103     Eu3118   2.348       .  S
C1105      C1480   1.489       .  S
C1106      C1489   1.481       .  S
C1107      C1345   1.468       .  S
C1108      C1357   1.471       .  S
C1109      C1321   1.473       .  S
C1110      C1333   1.473       .  S
C1111      C1309   1.468       .  S
C1112      C1285   1.485       .  S
H1113      O1114   0.966       .  S
H1115      O1116   0.966       .  S
O1116     Eu3114   2.352       .  S
O1116     Eu3118   2.349       .  S
O1117      C1128   1.291   1_545  A
O1117     Eu1153   2.457       .  S
O1118      C1129   1.290       .  A
O1118     Eu1152   2.455       .  S
O1119      C1130   1.292       .  A
O1119     Eu1125   2.464       .  S
O1120      C1131   1.292       .  A
O1121      C1131   1.292       .  A
O1121     Eu1155   2.464       .  S
O1122      C1130   1.293       .  A
O1122     Eu1154   2.468       .  S
O1123      C1129   1.288   1_565  A
O1123     Eu1125   2.442       .  S
O1124      C1128   1.288       .  A
O1124     Eu1125   2.438       .  S
Eu1125     O1127   2.346       .  S
Eu1125     O1133   2.349       .  S
O1126     Eu1155   2.349       .  S
O1127     Eu1153   2.355   1_565  S
O1127     Eu1154   2.350       .  S
C1130      C1237   1.493       .  S
C1131      C1225   1.485       .  S
H1132      O1133   0.966       .  S
O1133     Eu1154   2.354       .  S
O1133     Eu1152   2.356   1_565  S
H1134      O1135   0.966       .  S
O1135     Eu1155   2.346       .  S
O1136      C1159   1.292       .  A
O1136     Eu1152   2.461       .  S
O1137      C1160   1.292       .  A
O1137     Eu1153   2.458   1_565  S
O1138      C1161   1.290       .  A
O1138     Eu1154   2.454       .  S
O1139      C1162   1.288       .  A
O1139     Eu1155   2.444       .  S
O1140      C1163   1.288       .  A
O1140     Eu1155   2.443       .  S
O1141      C1164   1.291       .  A
O1141     Eu1154   2.459       .  S
O1142      C1165   1.292       .  A
O1142     Eu1156   2.465   1_565  S
O1143      C1166   1.292       .  A
O1144      C1165   1.292       .  A
O1144     Eu1154   2.465       .  S
O1145      C1166   1.290       .  A
O1145     Eu1155   2.450       .  S
O1146      C1161   1.289       .  A
O1146     Eu1152   2.447   1_565  S
O1147      C1164   1.290       .  A
O1147     Eu1153   2.447   1_565  S
O1148      C1163   1.295       .  A
O1149      C1162   1.291       .  A
O1150      C1159   1.287       .  A
O1150     Eu1156   2.439       .  S
O1151      C1160   1.288       .  A
O1151     Eu1156   2.438   1_565  S
Eu1152     O1158   2.354   1_545  S
Eu1153     O1168   2.357   1_545  S
Eu1154     O1168   2.349       .  S
Eu1154     O1158   2.353       .  S
Eu1155     O1157   2.350       .  S
Eu1155     O1170   2.350       .  S
Eu1156     O1168   2.349   1_545  S
Eu1156     O1158   2.348   1_545  S
C1161      C1312   1.466       .  S
C1162      C1300   1.478       .  S
C1163      C1276   1.482       .  S
C1164      C1288   1.480       .  S
C1165      C1249   1.486       .  S
C1166      C1261   1.477       .  S
H1167      O1168   0.966       .  S
H1169      O1170   0.965       .  S
O1171      C1182   1.288       .  A
O1171     Eu1207   2.442       .  S
O1172      C1183   1.289       .  A
O1172     Eu1206   2.448       .  S
O1173      C1184   1.291       .  A
O1173     Eu1683   2.456   1_554  S
O1174      C1185   1.290       .  A
O1174     Eu1179   2.454       .  S
O1175      C1185   1.290       .  A
O1175     Eu1209   2.454       .  S
O1176      C1184   1.290       .  A
O1176     Eu1208   2.453       .  S
O1177      C1183   1.293       .  A
O1177     Eu1179   2.463       .  S
O1178      C1182   1.293       .  A
O1178     Eu1179   2.472       .  S
Eu1179     O1677   2.457       .  S
Eu1179     O1189   2.355       .  S
Eu1179     O1685   2.348       .  S
Eu1179     O1180   2.355       .  S
Eu1179     O1691   2.350       .  S
O1180     Eu1209   2.347       .  S
O1180     Eu1206   2.355       .  S
O1181     Eu1683   2.348   1_554  S
O1181     Eu1711   2.347   1_554  S
O1181     Eu1208   2.352       .  S
C1182      C1909   1.480       .  S
C1183      C1897   1.482       .  S
C1184      C1336   1.470       .  S
C1185      C1348   1.469       .  S
H1186      O1187   0.967       .  S
O1187     Eu1683   2.350   1_554  S
O1187     Eu1208   2.344       .  S
O1187     Eu1710   2.351       .  S
H1188      O1189   0.966       .  S
O1189     Eu1207   2.355       .  S
O1189     Eu1209   2.358       .  S
O1190      C1213   1.292       .  A
O1190     Eu1206   2.465       .  S
O1191      C1214   1.287       .  A
O1191     Eu1207   2.437       .  S
O1192      C1215   1.292       .  A
O1192     Eu1208   2.469       .  S
O1193      C1216   1.291       .  A
O1193     Eu1209   2.458       .  S
O1194      C1217   1.292       .  A
O1194     Eu1209   2.463       .  S
O1195      C1218   1.292       .  A
O1195     Eu1208   2.461       .  S
O1196      C1219   1.291       .  A
O1196     Eu1714   2.453       .  S
O1197      C1220   1.289       .  A
O1197     Eu1210   2.446       .  S
O1198      C1219   1.289       .  A
O1198     Eu1208   2.450       .  S
O1199      C1220   1.290       .  A
O1199     Eu1209   2.449       .  S
O1200      C1215   1.293       .  A
O1200     Eu1710   2.464       .  S
O1201      C1218   1.292       .  A
O1201     Eu1711   2.462   1_554  S
O1202      C1217   1.292       .  A
O1202     Eu1207   2.463       .  S
O1203      C1216   1.292       .  A
O1203     Eu1206   2.464       .  S
O1204      C1213   1.290       .  A
O1204     Eu1210   2.452       .  S
O1205      C1214   1.291       .  A
O1205     Eu1210   2.460       .  S
Eu1206     O1704   2.463       .  S
Eu1206     O1691   2.352       .  S
Eu1206     O1224   2.350       .  S
Eu1206     O1716   2.350       .  S
Eu1207     O1705   2.462       .  S
Eu1207     O1685   2.347       .  S
Eu1207     O1211   2.346       .  S
Eu1207     O1726   2.355       .  S
Eu1208     O1222   2.355       .  S
Eu1208     O1212   2.354       .  S
Eu1209     O1211   2.350       .  S
Eu1209     O1224   2.353       .  S
Eu1210     O1700   2.456       .  S
Eu1210     O1211   2.348       .  S
Eu1210     O1726   2.350       .  S
Eu1210     O1224   2.355       .  S
Eu1210     O1716   2.354       .  S
O1212     Eu1710   2.350       .  S
O1212     Eu1714   2.354       .  S
C1213      C1873   1.477       .  S
C1214      C1885   1.470       .  S
C1215      C1240   1.496       .  S
C1216      C1252   1.485       .  S
C1217      C1264   1.480       .  S
C1218      C1228   1.484       .  S
C1219      C1324   1.475       .  S
C1220      C1360   1.471       .  S
H1221      O1222   0.966       .  S
O1222     Eu1711   2.355   1_554  S
O1222     Eu1714   2.350       .  S
H1223      O1224   0.966       .  S
C1225      C1226   1.406       .  A
C1225      C1230   1.416       .  A
C1226      C1227   1.401       .  A
C1226      H1235   1.084       .  S
C1227      C1228   1.416       .  A
C1227      S1231   1.804       .  S
C1228      C1229   1.405       .  A
C1229      C1230   1.400       .  A
C1229      H1236   1.084       .  S
C1230      S1232   1.804       .  S
S1231      H1234   1.407       .  S
S1232      H1233   1.407       .  S
C1237      C1238   1.407       .  A
C1237      C1242   1.417       .  A
C1238      C1239   1.404       .  A
C1238      H1247   1.084       .  S
C1239      C1240   1.419       .  A
C1239      S1243   1.803       .  S
C1240      C1241   1.406       .  A
C1241      C1242   1.399       .  A
C1241      H1248   1.082       .  S
C1242      S1244   1.804       .  S
S1243      H1246   1.406       .  S
S1244      H1245   1.408       .  S
C1249      C1250   1.405       .  A
C1249      C1254   1.416       .  A
C1250      C1251   1.400       .  A
C1250      H1259   1.084       .  S
C1251      C1252   1.416       .  A
C1251      S1255   1.805       .  S
C1252      C1253   1.405       .  A
C1253      C1254   1.402       .  A
C1253      H1260   1.084       .  S
C1254      S1256   1.804       .  S
S1255      H1258   1.407       .  S
S1256      H1257   1.407       .  S
C1261      C1262   1.403       .  A
C1261      C1266   1.415       .  A
C1262      C1263   1.400       .  A
C1262      H1271   1.084       .  S
C1263      C1264   1.415       .  A
C1263      S1267   1.805       .  S
C1264      C1265   1.404       .  A
C1265      C1266   1.401       .  A
C1265      H1272   1.084       .  S
C1266      S1268   1.806       .  S
S1267      H1270   1.406       .  S
S1268      H1269   1.407       .  S
C1273      C1274   1.403       .  A
C1273      C1278   1.414       .  A
C1274      C1275   1.402       .  A
C1274      H1283   1.084       .  S
C1275      C1276   1.418       .  A
C1275      S1279   1.805       .  S
C1276      C1277   1.403       .  A
C1277      C1278   1.401       .  A
C1277      H1284   1.084       .  S
C1278      S1280   1.801       .  S
S1279      H1282   1.406       .  S
S1280      H1281   1.407       .  S
C1285      C1286   1.405       .  A
C1285      C1290   1.417       .  A
C1286      C1287   1.399       .  A
C1286      H1295   1.084       .  S
C1287      C1288   1.414       .  A
C1287      S1291   1.804       .  S
C1288      C1289   1.404       .  A
C1289      C1290   1.397       .  A
C1289      H1296   1.084       .  S
C1290      S1292   1.799       .  S
S1291      H1294   1.407       .  S
S1292      H1293   1.407       .  S
C1297      C1298   1.402       .  A
C1297      C1302   1.413       .  A
C1298      C1299   1.396       .  A
C1298      H1307   1.082       .  S
C1299      C1300   1.415       .  A
C1299      S1303   1.804       .  S
C1300      C1301   1.403       .  A
C1301      C1302   1.396       .  A
C1301      H1308   1.084       .  S
C1302      S1304   1.798       .  S
S1303      H1306   1.407       .  S
S1304      H1305   1.409       .  S
C1309      C1310   1.402       .  A
C1309      C1314   1.410       .  A
C1310      C1311   1.399       .  A
C1310      H1319   1.084       .  S
C1311      C1312   1.413       .  A
C1311      S1315   1.806       .  S
C1312      C1313   1.401       .  A
C1313      C1314   1.396       .  A
C1313      H1320   1.084       .  S
C1314      S1316   1.802       .  S
S1315      H1318   1.406       .  S
S1316      H1317   1.407       .  S
C1321      C1322   1.402       .  A
C1321      C1326   1.414       .  A
C1322      C1323   1.399       .  A
C1322      H1331   1.084       .  S
C1323      C1324   1.416       .  A
C1323      S1327   1.805       .  S
C1324      C1325   1.402       .  A
C1325      C1326   1.395       .  A
C1325      H1332   1.084       .  S
C1326      S1328   1.803       .  S
S1327      H1330   1.407       .  S
S1328      H1329   1.407       .  S
C1333      C1334   1.403       .  A
C1333      C1338   1.412       .  A
C1334      C1335   1.400       .  A
C1334      H1343   1.084       .  S
C1335      C1336   1.413       .  A
C1335      S1339   1.805       .  S
C1336      C1337   1.402       .  A
C1337      C1338   1.398       .  A
C1337      H1344   1.084       .  S
C1338      S1340   1.801       .  S
S1339      H1342   1.405       .  S
S1340      H1341   1.406       .  S
C1345      C1346   1.404       .  A
C1345      C1350   1.411       .  A
C1346      C1347   1.400       .  A
C1346      H1355   1.084       .  S
C1347      C1348   1.413       .  A
C1347      S1351   1.805       .  S
C1348      C1349   1.402       .  A
C1349      C1350   1.396       .  A
C1349      H1356   1.084       .  S
C1350      S1352   1.806       .  S
S1351      H1354   1.407       .  S
S1352      H1353   1.407       .  S
C1357      C1358   1.403       .  A
C1357      C1362   1.415       .  A
C1358      C1359   1.393       .  A
C1358      H1367   1.084       .  S
C1359      C1360   1.413       .  A
C1359      S1363   1.804       .  S
C1360      C1361   1.404       .  A
C1361      C1362   1.397       .  A
C1361      H1368   1.084       .  S
C1362      S1364   1.806       .  S
S1363      H1366   1.406       .  S
S1364      H1365   1.407       .  S
C1369      C1717   1.475       .  S
C1369      C1874   1.405   1_554  A
C1369      C1374   1.411       .  A
C1370      C1873   1.405       .  A
C1370      C1371   1.401       .  A
C1370      H1379   1.084       .  S
C1371      C1876   1.416       .  A
C1371      S1375   1.806       .  S
C1372      C1875   1.416       .  A
C1372      C1373   1.400   1_556  A
C1373      C1374   1.395       .  A
C1373      H1380   1.084       .  S
C1374      S1376   1.801       .  S
S1375      H1378   1.406       .  S
S1376      H1377   1.407       .  S
C1381      C1718   1.469       .  S
C1381      C1886   1.400       .  A
C1381      C1386   1.415   1_556  A
C1382      C1885   1.400       .  A
C1382      C1383   1.395       .  A
C1382      H1391   1.084       .  S
C1383      C1888   1.412       .  A
C1383      S1387   1.799       .  S
C1384      C1887   1.412       .  A
C1384      C1385   1.403   1_556  A
C1385      C1386   1.398       .  A
C1385      H1392   1.084       .  S
C1386      S1388   1.805       .  S
S1387      H1390   1.408       .  S
S1388      H1389   1.407       .  S
C1393      C1687   1.484       .  S
C1393      C1898   1.401   1_554  A
C1393      C1398   1.416       .  A
C1394      C1897   1.400       .  A
C1394      C1395   1.396       .  A
C1394      H1403   1.084       .  S
C1395      C1900   1.417       .  A
C1395      S1399   1.792       .  S
C1396      C1899   1.418       .  A
C1396      C1397   1.404   1_556  A
C1397      C1398   1.401       .  A
C1397      H1404   1.081       .  S
C1398      S1400   1.803       .  S
S1399      H1402   1.408       .  S
S1400      H1401   1.409       .  S
C1405      C1686   1.479       .  S
C1405      C1406   1.404   1_556  A
C1405      C1914   1.415       .  A
C1406      C1407   1.401       .  A
C1406      H1415   1.084       .  S
C1407      C1408   1.414       .  A
C1407      S1411   1.802       .  S
C1408      C1913   1.404   1_554  A
C1409      C1912   1.404       .  A
C1409      C1410   1.398       .  A
C1409      H1416   1.084       .  S
C1410      C1909   1.416       .  A
C1410      S1412   1.805       .  S
S1411      H1414   1.407       .  S
S1412      H1413   1.407       .  S
C1417      C1422   1.416       .  A
C1418      C1419   1.397       .  A
C1418      H1427   1.084       .  S
C1419      S1423   1.805       .  S
C1420      C1421   1.402       .  A
C1421      C1422   1.396       .  A
C1421      H1428   1.084       .  S
C1422      S1424   1.804       .  S
S1423      H1426   1.407       .  S
S1424      H1425   1.407       .  S
C1429      C1430   1.403       .  A
C1430      C1431   1.397       .  A
C1430      H1439   1.084       .  S
C1431      C1432   1.416       .  A
C1431      S1435   1.806       .  S
C1433      C1434   1.395       .  A
C1433      H1440   1.084       .  S
C1434      S1436   1.804       .  S
S1435      H1438   1.406       .  S
S1436      H1437   1.408       .  S
C1441      C1446   1.412       .  A
C1442      C1443   1.396       .  A
C1442      H1451   1.084       .  S
C1443      S1447   1.801       .  S
C1444      C1445   1.402       .  A
C1445      C1446   1.398       .  A
C1445      H1452   1.084       .  S
C1446      S1448   1.805       .  S
S1447      H1450   1.405       .  S
S1448      H1449   1.407       .  S
C1453      C1454   1.404       .  A
C1454      C1455   1.396       .  A
C1454      H1463   1.084       .  S
C1455      C1456   1.415       .  A
C1455      S1459   1.805       .  S
C1457      C1458   1.396       .  A
C1457      H1464   1.084       .  S
C1458      S1460   1.804       .  S
S1459      H1462   1.407       .  S
S1460      H1461   1.407       .  S
C1465      C1466   1.408   1_455  A
C1465      C3486   1.419       .  A
C1466      C1467   1.402       .  A
C1466      H1475   1.082       .  S
C1467      C1468   1.419       .  A
C1467      S1471   1.804       .  S
C1468      C3485   1.405   1_655  A
C1469      C3484   1.405       .  A
C1469      C1470   1.400       .  A
C1469      H1476   1.080       .  S
C1470      C3481   1.419       .  A
C1470      S1472   1.804       .  S
S1471      H1474   1.407       .  S
S1472      H1473   1.408       .  S
C1477      C3494   1.406       .  A
C1477      C1482   1.416   1_455  A
C1478      C3493   1.406       .  A
C1478      C1479   1.402       .  A
C1478      H1487   1.076       .  S
C1479      C3496   1.415       .  A
C1479      S1483   1.811       .  S
C1480      C3495   1.415       .  A
C1480      C1481   1.404   1_455  A
C1481      C1482   1.396       .  A
C1481      H1488   1.080       .  S
C1482      S1484   1.803       .  S
S1483      H1486   1.405       .  S
S1484      H1485   1.408       .  S
C1489      C1490   1.404   1_655  A
C1489      C3510   1.415       .  A
C1490      C1491   1.395       .  A
C1490      H1499   1.082       .  S
C1491      C1492   1.416   1_455  A
C1491      S1495   1.806       .  S
C1492      C3509   1.405       .  A
C1493      C3508   1.405       .  A
C1493      C1494   1.398       .  A
C1493      H1500   1.084       .  S
C1494      C3505   1.415       .  A
C1494      S1496   1.804       .  S
S1495      H1498   1.406       .  S
S1496      H1497   1.408       .  S
C1501      C3518   1.408       .  A
C1501      C1506   1.420   1_655  A
C1502      C3517   1.408       .  A
C1502      C1503   1.400       .  A
C1502      H1511   1.083       .  S
C1503      C3520   1.419       .  A
C1503      S1507   1.804       .  S
C1504      C3519   1.419       .  A
C1504      C1505   1.406   1_655  A
C1505      C1506   1.398       .  A
C1505      H1512   1.083       .  S
C1506      S1508   1.803       .  S
S1507      H1510   1.408       .  S
S1508      H1509   1.408       .  S
O1513      C1524   1.289       .  A
O1513     Eu1549   2.455       .  S
O1514      C1525   1.290   1_655  A
O1514     Eu1548   2.459   1_655  S
O1515      C1526   1.293       .  A
O1515     Eu1521   2.470   1_455  S
O1516      C1527   1.291       .  A
O1516     Eu3537   2.457       .  S
O1517      C1527   1.291       .  A
O1517     Eu1551   2.454       .  S
O1518      C1526   1.291       .  A
O1518     Eu1550   2.453       .  S
O1519      C1525   1.293       .  A
O1520      C1524   1.292       .  A
O1520     Eu1521   2.457       .  S
Eu1521     O3532   2.457       .  S
Eu1521     O3547   2.359       .  S
Eu1521     O1523   2.348   1_655  S
Eu1521     O3034   2.352       .  S
O1522     Eu3033   2.352   1_556  S
O1522     Eu3564   2.345       .  S
O1523     Eu1549   2.346   1_455  S
O1523     Eu1550   2.352       .  S
C1524      C2008   1.495       .  S
C1525      C1969   1.496       .  S
C1526      C1912   1.482       .  S
C1527      C1888   1.473       .  S
H1528      O1529   0.966       .  S
O1529     Eu1548   2.352       .  S
H1530      O1531   0.966       .  S
O1531     Eu3537   2.359       .  S
O1531     Eu3565   2.347       .  S
O1531     Eu1551   2.354       .  S
O1532      C1555   1.290       .  A
O1533      C1556   1.287       .  A
O1534      C1557   1.290       .  A
O1535      C1558   1.291       .  A
O1536      C1559   1.290       .  A
O1536     Eu1551   2.451       .  S
O1537      C1560   1.291       .  A
O1537     Eu1550   2.455       .  S
O1538      C1561   1.290       .  A
O1538     Eu1552   2.458       .  S
O1539      C1562   1.287       .  A
O1539     Eu3568   2.433       .  S
O1540      C1561   1.293       .  A
O1541      C1562   1.294       .  A
O1542      C1557   1.289       .  A
O1542     Eu1548   2.444       .  S
O1543      C1560   1.288       .  A
O1543     Eu1549   2.443   1_455  S
O1544      C1559   1.289       .  A
O1544     Eu3565   2.448       .  S
O1545      C1558   1.289       .  A
O1545     Eu3564   2.452       .  S
O1546      C1555   1.291       .  A
O1547      C1556   1.293   1_455  A
O1547     Eu1552   2.467       .  S
Eu1548     O3561   2.452   1_455  S
Eu1548     O3538   2.345   1_455  S
Eu1548     O2574   2.344   1_455  S
Eu1549     O3560   2.448       .  S
Eu1549     O3547   2.346       .  S
Eu1549     O2561   2.348       .  S
Eu1552     O3555   2.433   1_455  S
Eu1552     O3569   2.354   1_455  S
Eu1552     O1564   2.344       .  S
Eu1552     O3078   2.355   1_455  S
O1553     Eu2557   2.348       .  S
O1553     Eu3568   2.354       .  S
C1555      C1981   1.492       .  S
C1556      C1996   1.479       .  S
C1557      C1933   1.472       .  S
C1558      C1921   1.480       .  S
C1559      C1957   1.474       .  S
C1560      C1948   1.465       .  S
C1561      C1900   1.492       .  S
C1562      C1876   1.472       .  S
H1563      O1564   0.965       .  S
H1565      O1566   0.965       .  S
O1566     Eu2556   2.344       .  S
O1566     Eu3064   2.354   1_556  S
O1567      C1578   1.290       .  A
O1567     Eu1603   2.460       .  S
O1568      C1579   1.290   1_455  A
O1568     Eu1602   2.456       .  S
O1569      C1580   1.292       .  A
O1569     Eu1575   2.457   1_455  S
O1570      C1581   1.293       .  A
O1570     Eu3591   2.466       .  S
O1571      C1581   1.293       .  A
O1571     Eu1605   2.469       .  S
O1572      C1580   1.290       .  A
O1572     Eu1604   2.445       .  S
O1573      C1579   1.294       .  A
O1573     Eu1575   2.469       .  S
O1574      C1578   1.293   1_455  A
O1574     Eu1575   2.461   1_455  S
Eu1575     O3586   2.466       .  S
Eu1575     O3601   2.347       .  S
Eu1575     O1577   2.357   1_655  S
Eu1575     O3592   2.347       .  S
Eu1575     O1583   2.355   1_655  S
O1576     Eu3591   2.347       .  S
O1576     Eu1605   2.352       .  S
O1576     Eu3618   2.350       .  S
O1577     Eu1603   2.347   1_455  S
O1577     Eu1604   2.351       .  S
C1578      C2005   1.497       .  S
C1579      C1972   1.496       .  S
C1580      C1801   1.477       .  S
C1581      C1777   1.484       .  S
H1582      O1583   0.965       .  S
O1583     Eu1604   2.361       .  S
O1583     Eu1602   2.342       .  S
H1584      O1585   0.965       .  S
O1585     Eu3591   2.347       .  S
O1585     Eu3619   2.348       .  S
O1585     Eu1605   2.352       .  S
O1586      C1609   1.288       .  A
O1586     Eu1602   2.446       .  S
O1587      C1610   1.291       .  A
O1587     Eu1603   2.457       .  S
O1588      C1611   1.289       .  A
O1588     Eu1604   2.452       .  S
O1589      C1612   1.291       .  A
O1589     Eu1605   2.451       .  S
O1590      C1613   1.291       .  A
O1590     Eu1605   2.458       .  S
O1591      C1614   1.292       .  A
O1591     Eu1604   2.466       .  S
O1592      C1615   1.289       .  A
O1592     Eu1606   2.447       .  S
O1593      C1616   1.290       .  A
O1593     Eu3622   2.451       .  S
O1594      C1615   1.291       .  A
O1594     Eu1604   2.461       .  S
O1595      C1616   1.293       .  A
O1595     Eu1605   2.468       .  S
O1596      C1611   1.290       .  A
O1596     Eu1602   2.450       .  S
O1597      C1614   1.289       .  A
O1597     Eu1603   2.452   1_455  S
O1598      C1613   1.289       .  A
O1598     Eu3619   2.442       .  S
O1599      C1612   1.287       .  A
O1599     Eu3618   2.434       .  S
O1600      C1609   1.292       .  A
O1600     Eu1606   2.459       .  S
O1601      C1610   1.290       .  A
O1601     Eu1606   2.449   1_655  S
Eu1602     O3615   2.434   1_455  S
Eu1602     O3592   2.350   1_455  S
Eu1602     O3636   2.354   1_455  S
Eu1602     O1608   2.344       .  S
Eu1603     O3614   2.442       .  S
Eu1603     O3601   2.348       .  S
Eu1603     O3623   2.348       .  S
Eu1603     O1618   2.352   1_655  S
Eu1604     O1618   2.354       .  S
Eu1604     O1608   2.345       .  S
Eu1605     O1607   2.349       .  S
Eu1605     O1620   2.355       .  S
Eu1606     O3609   2.451   1_455  S
Eu1606     O3623   2.347   1_455  S
Eu1606     O1618   2.357       .  S
Eu1606     O3636   2.350   1_455  S
Eu1606     O1608   2.345       .  S
O1607     Eu3619   2.348       .  S
O1607     Eu3622   2.348       .  S
C1609      C1984   1.490       .  S
C1610      C1993   1.482       .  S
C1611      C1849   1.468       .  S
C1612      C1861   1.472       .  S
C1613      C1825   1.473       .  S
C1614      C1837   1.473       .  S
C1615      C1813   1.467       .  S
C1616      C1789   1.486       .  S
H1617      O1618   0.966       .  S
H1619      O1620   0.966       .  S
O1620     Eu3618   2.354       .  S
O1620     Eu3622   2.350       .  S
O1621      C1632   1.292   1_545  A
O1621     Eu1657   2.459       .  S
O1622      C1633   1.290       .  A
O1622     Eu1656   2.456       .  S
O1623      C1634   1.291       .  A
O1623     Eu1629   2.464       .  S
O1624      C1635   1.292       .  A
O1625      C1635   1.292       .  A
O1625     Eu1659   2.464       .  S
O1626      C1634   1.293       .  A
O1626     Eu1658   2.467       .  S
O1627      C1633   1.288   1_565  A
O1627     Eu1629   2.443       .  S
O1628      C1632   1.287       .  A
O1628     Eu1629   2.436       .  S
Eu1629     O1631   2.346       .  S
Eu1629     O1637   2.348       .  S
O1630     Eu1659   2.349       .  S
O1631     Eu1657   2.355   1_565  S
O1631     Eu1658   2.349       .  S
C1634      C1741   1.493       .  S
C1635      C1729   1.484       .  S
H1636      O1637   0.966       .  S
O1637     Eu1658   2.355       .  S
O1637     Eu1656   2.356   1_565  S
H1638      O1639   0.966       .  S
O1639     Eu1659   2.346       .  S
O1640      C1663   1.292       .  A
O1640     Eu1656   2.461       .  S
O1641      C1664   1.293       .  A
O1641     Eu1657   2.462   1_565  S
O1642      C1665   1.290       .  A
O1642     Eu1658   2.454       .  S
O1643      C1666   1.288       .  A
O1643     Eu1659   2.443       .  S
O1644      C1667   1.288       .  A
O1644     Eu1659   2.444       .  S
O1645      C1668   1.292       .  A
O1645     Eu1658   2.462       .  S
O1646      C1669   1.292       .  A
O1646     Eu1660   2.465   1_565  S
O1647      C1670   1.292       .  A
O1648      C1669   1.293       .  A
O1648     Eu1658   2.466       .  S
O1649      C1670   1.290       .  A
O1649     Eu1659   2.451       .  S
O1650      C1665   1.289       .  A
O1650     Eu1656   2.447   1_565  S
O1651      C1668   1.290       .  A
O1651     Eu1657   2.446   1_565  S
O1652      C1667   1.295       .  A
O1653      C1666   1.291       .  A
O1654      C1663   1.288       .  A
O1654     Eu1660   2.441       .  S
O1655      C1664   1.288       .  A
O1655     Eu1660   2.438   1_565  S
Eu1656     O1662   2.354   1_545  S
Eu1657     O1672   2.358   1_545  S
Eu1658     O1672   2.349       .  S
Eu1658     O1662   2.353       .  S
Eu1659     O1661   2.350       .  S
Eu1659     O1674   2.351       .  S
Eu1660     O1672   2.350   1_545  S
Eu1660     O1662   2.348   1_545  S
C1665      C1816   1.464       .  S
C1666      C1804   1.477       .  S
C1667      C1780   1.482       .  S
C1668      C1792   1.482       .  S
C1669      C1753   1.487       .  S
C1670      C1765   1.478       .  S
H1671      O1672   0.966       .  S
H1673      O1674   0.965       .  S
O1675      C1686   1.288       .  A
O1675     Eu1711   2.443       .  S
O1676      C1687   1.290   1_556  A
O1676     Eu1710   2.451   1_556  S
O1677      C1688   1.291       .  A
O1678      C1689   1.290       .  A
O1678     Eu1683   2.454       .  S
O1679      C1689   1.289       .  A
O1679     Eu1713   2.450       .  S
O1680      C1688   1.290       .  A
O1680     Eu1712   2.453       .  S
O1681      C1687   1.293   1_556  A
O1681     Eu1683   2.459       .  S
O1682      C1686   1.293       .  A
O1682     Eu1683   2.471       .  S
Eu1683     O1693   2.354       .  S
Eu1683     O1684   2.355       .  S
O1684     Eu1713   2.348       .  S
O1684     Eu1710   2.355   1_556  S
O1685     Eu1712   2.351       .  S
C1688      C1840   1.471       .  S
C1689      C1852   1.468       .  S
H1690      O1691   0.967       .  S
O1691     Eu1712   2.346       .  S
H1692      O1693   0.967       .  S
O1693     Eu1711   2.356       .  S
O1693     Eu1713   2.358       .  S
O1694      C1717   1.293       .  A
O1694     Eu1710   2.467       .  S
O1695      C1718   1.287       .  A
O1695     Eu1711   2.437       .  S
O1696      C1719   1.292       .  A
O1696     Eu1712   2.468       .  S
O1697      C1720   1.291       .  A
O1697     Eu1713   2.459       .  S
O1698      C1721   1.292       .  A
O1698     Eu1713   2.463       .  S
O1699      C1722   1.292       .  A
O1699     Eu1712   2.461       .  S
O1700      C1723   1.291       .  A
O1701      C1724   1.289       .  A
O1701     Eu1714   2.443   1_556  S
O1702      C1723   1.290       .  A
O1702     Eu1712   2.451       .  S
O1703      C1724   1.289       .  A
O1703     Eu1713   2.447       .  S
O1704      C1719   1.293       .  A
O1705      C1722   1.292       .  A
O1706      C1721   1.292       .  A
O1706     Eu1711   2.462       .  S
O1707      C1720   1.292       .  A
O1707     Eu1710   2.463   1_556  S
O1708      C1717   1.289       .  A
O1708     Eu1714   2.449       .  S
O1709      C1718   1.291       .  A
O1709     Eu1714   2.457   1_556  S
Eu1710     O1728   2.350   1_554  S
Eu1711     O1715   2.345       .  S
Eu1712     O1726   2.355       .  S
Eu1712     O1716   2.354       .  S
Eu1713     O1715   2.349       .  S
Eu1713     O1728   2.352       .  S
Eu1714     O1715   2.346   1_554  S
Eu1714     O1728   2.354   1_554  S
C1719      C1744   1.496       .  S
C1720      C1756   1.485       .  S
C1721      C1768   1.480       .  S
C1722      C1732   1.484       .  S
C1723      C1828   1.476       .  S
C1724      C1864   1.471       .  S
H1725      O1726   0.966       .  S
H1727      O1728   0.966       .  S
C1729      C1730   1.406       .  A
C1729      C1734   1.415       .  A
C1730      C1731   1.402       .  A
C1730      H1739   1.084       .  S
C1731      C1732   1.416       .  A
C1731      S1735   1.804       .  S
C1732      C1733   1.405       .  A
C1733      C1734   1.400       .  A
C1733      H1740   1.084       .  S
C1734      S1736   1.804       .  S
S1735      H1738   1.407       .  S
S1736      H1737   1.408       .  S
C1741      C1742   1.407       .  A
C1741      C1746   1.417       .  A
C1742      C1743   1.404       .  A
C1742      H1751   1.084       .  S
C1743      C1744   1.419       .  A
C1743      S1747   1.803       .  S
C1744      C1745   1.406       .  A
C1745      C1746   1.399       .  A
C1745      H1752   1.081       .  S
C1746      S1748   1.804       .  S
S1747      H1750   1.407       .  S
S1748      H1749   1.408       .  S
C1753      C1754   1.406       .  A
C1753      C1758   1.417       .  A
C1754      C1755   1.401       .  A
C1754      H1763   1.084       .  S
C1755      C1756   1.416       .  A
C1755      S1759   1.805       .  S
C1756      C1757   1.405       .  A
C1757      C1758   1.401       .  A
C1757      H1764   1.084       .  S
C1758      S1760   1.804       .  S
S1759      H1762   1.407       .  S
S1760      H1761   1.407       .  S
C1765      C1766   1.404       .  A
C1765      C1770   1.415       .  A
C1766      C1767   1.400       .  A
C1766      H1775   1.084       .  S
C1767      C1768   1.415       .  A
C1767      S1771   1.805       .  S
C1768      C1769   1.404       .  A
C1769      C1770   1.400       .  A
C1769      H1776   1.084       .  S
C1770      S1772   1.806       .  S
S1771      H1774   1.407       .  S
S1772      H1773   1.407       .  S
C1777      C1778   1.404       .  A
C1777      C1782   1.415       .  A
C1778      C1779   1.402       .  A
C1778      H1787   1.084       .  S
C1779      C1780   1.418       .  A
C1779      S1783   1.805       .  S
C1780      C1781   1.402       .  A
C1781      C1782   1.400       .  A
C1781      H1788   1.084       .  S
C1782      S1784   1.801       .  S
S1783      H1786   1.406       .  S
S1784      H1785   1.407       .  S
C1789      C1790   1.406       .  A
C1789      C1794   1.417       .  A
C1790      C1791   1.399       .  A
C1790      H1799   1.084       .  S
C1791      C1792   1.414       .  A
C1791      S1795   1.804       .  S
C1792      C1793   1.404       .  A
C1793      C1794   1.398       .  A
C1793      H1800   1.084       .  S
C1794      S1796   1.799       .  S
S1795      H1798   1.408       .  S
S1796      H1797   1.407       .  S
C1801      C1802   1.402       .  A
C1801      C1806   1.412       .  A
C1802      C1803   1.395       .  A
C1802      H1811   1.081       .  S
C1803      C1804   1.415       .  A
C1803      S1807   1.804       .  S
C1804      C1805   1.403       .  A
C1805      C1806   1.396       .  A
C1805      H1812   1.084       .  S
C1806      S1808   1.798       .  S
S1807      H1810   1.407       .  S
S1808      H1809   1.408       .  S
C1813      C1814   1.402       .  A
C1813      C1818   1.410       .  A
C1814      C1815   1.399       .  A
C1814      H1823   1.084       .  S
C1815      C1816   1.412       .  A
C1815      S1819   1.806       .  S
C1816      C1817   1.401       .  A
C1817      C1818   1.397       .  A
C1817      H1824   1.084       .  S
C1818      S1820   1.801       .  S
S1819      H1822   1.407       .  S
S1820      H1821   1.407       .  S
C1825      C1826   1.402       .  A
C1825      C1830   1.414       .  A
C1826      C1827   1.399       .  A
C1826      H1835   1.084       .  S
C1827      C1828   1.416       .  A
C1827      S1831   1.805       .  S
C1828      C1829   1.402       .  A
C1829      C1830   1.396       .  A
C1829      H1836   1.084       .  S
C1830      S1832   1.803       .  S
S1831      H1834   1.407       .  S
S1832      H1833   1.407       .  S
C1837      C1838   1.402       .  A
C1837      C1842   1.412       .  A
C1838      C1839   1.400       .  A
C1838      H1847   1.084       .  S
C1839      C1840   1.413       .  A
C1839      S1843   1.806       .  S
C1840      C1841   1.402       .  A
C1841      C1842   1.399       .  A
C1841      H1848   1.084       .  S
C1842      S1844   1.801       .  S
S1843      H1846   1.405       .  S
S1844      H1845   1.406       .  S
C1849      C1850   1.404       .  A
C1849      C1854   1.411       .  A
C1850      C1851   1.400       .  A
C1850      H1859   1.084       .  S
C1851      C1852   1.413       .  A
C1851      S1855   1.805       .  S
C1852      C1853   1.402       .  A
C1853      C1854   1.395       .  A
C1853      H1860   1.084       .  S
C1854      S1856   1.806       .  S
S1855      H1858   1.407       .  S
S1856      H1857   1.406       .  S
C1861      C1862   1.403       .  A
C1861      C1866   1.416       .  A
C1862      C1863   1.393       .  A
C1862      H1871   1.084       .  S
C1863      C1864   1.413       .  A
C1863      S1867   1.804       .  S
C1864      C1865   1.404       .  A
C1865      C1866   1.397       .  A
C1865      H1872   1.084       .  S
C1866      S1868   1.806       .  S
S1867      H1870   1.406       .  S
S1868      H1869   1.407       .  S
C1873      C1878   1.412       .  A
C1874      C1875   1.401       .  A
C1874      H1883   1.084       .  S
C1875      S1879   1.806       .  S
C1876      C1877   1.400       .  A
C1877      C1878   1.394       .  A
C1877      H1884   1.084       .  S
C1878      S1880   1.799       .  S
S1879      H1882   1.406       .  S
S1880      H1881   1.407       .  S
C1885      C1890   1.415       .  A
C1886      C1887   1.395       .  A
C1886      H1895   1.084       .  S
C1887      S1891   1.799       .  S
C1888      C1889   1.403       .  A
C1889      C1890   1.399       .  A
C1889      H1896   1.084       .  S
C1890      S1892   1.805       .  S
S1891      H1894   1.408       .  S
S1892      H1893   1.407       .  S
C1897      C1902   1.416       .  A
C1898      C1899   1.396       .  A
C1898      H1907   1.084       .  S
C1899      S1903   1.792       .  S
C1900      C1901   1.405       .  A
C1901      C1902   1.402       .  A
C1901      H1908   1.081       .  S
C1902      S1904   1.803       .  S
S1903      H1906   1.408       .  S
S1904      H1905   1.408       .  S
C1909      C1910   1.405       .  A
C1910      C1911   1.402       .  A
C1910      H1919   1.084       .  S
C1911      C1912   1.415       .  A
C1911      S1915   1.801       .  S
C1913      C1914   1.399       .  A
C1913      H1920   1.084       .  S
C1914      S1916   1.805       .  S
S1915      H1918   1.407       .  S
S1916      H1917   1.407       .  S
C1921      C1926   1.416       .  A
C1922      C1923   1.398       .  A
C1922      H1931   1.084       .  S
C1923      S1927   1.805       .  S
C1924      C1925   1.402       .  A
C1925      C1926   1.396       .  A
C1925      H1932   1.084       .  S
C1926      S1928   1.804       .  S
S1927      H1930   1.407       .  S
S1928      H1929   1.407       .  S
C1933      C1934   1.403       .  A
C1934      C1935   1.398       .  A
C1934      H1943   1.084       .  S
C1935      C1936   1.415       .  A
C1935      S1939   1.806       .  S
C1937      C1938   1.396       .  A
C1937      H1944   1.084       .  S
C1938      S1940   1.805       .  S
S1939      H1942   1.406       .  S
S1940      H1941   1.408       .  S
C1945      C1950   1.412       .  A
C1946      C1947   1.396       .  A
C1946      H1955   1.084       .  S
C1947      S1951   1.801       .  S
C1948      C1949   1.401       .  A
C1949      C1950   1.398       .  A
C1949      H1956   1.084       .  S
C1950      S1952   1.805       .  S
S1951      H1954   1.404       .  S
S1952      H1953   1.407       .  S
C1957      C1958   1.404       .  A
C1958      C1959   1.396       .  A
C1958      H1967   1.084       .  S
C1959      C1960   1.415       .  A
C1959      S1963   1.805       .  S
C1961      C1962   1.396       .  A
C1961      H1968   1.084       .  S
C1962      S1964   1.804       .  S
S1963      H1966   1.407       .  S
S1964      H1965   1.407       .  S
C1969      C1970   1.407   1_455  A
C1969      C3990   1.419       .  A
C1970      C1971   1.401       .  A
C1970      H1979   1.082       .  S
C1971      C1972   1.418       .  A
C1971      S1975   1.804       .  S
C1972      C3989   1.405   1_655  A
C1973      C3988   1.405       .  A
C1973      C1974   1.400       .  A
C1973      H1980   1.081       .  S
C1974      C3985   1.419       .  A
C1974      S1976   1.804       .  S
S1975      H1978   1.408       .  S
S1976      H1977   1.408       .  S
C1981      C3998   1.406       .  A
C1981      C1986   1.416   1_455  A
C1982      C3997   1.406       .  A
C1982      C1983   1.402       .  A
C1982      H1991   1.076       .  S
C1983      C4000   1.416       .  A
C1983      S1987   1.812       .  S
C1984      C3999   1.416       .  A
C1984      C1985   1.404   1_455  A
C1985      C1986   1.396       .  A
C1985      H1992   1.080       .  S
C1986      S1988   1.803       .  S
S1987      H1990   1.405       .  S
S1988      H1989   1.408       .  S
C1993      C1994   1.404   1_655  A
C1993      C4014   1.415       .  A
C1994      C1995   1.396       .  A
C1994      H2003   1.082       .  S
C1995      C1996   1.416   1_455  A
C1995      S1999   1.806       .  S
C1996      C4013   1.404       .  A
C1997      C4012   1.404       .  A
C1997      C1998   1.399       .  A
C1997      H2004   1.084       .  S
C1998      C4009   1.415       .  A
C1998      S2000   1.804       .  S
S1999      H2002   1.405       .  S
S2000      H2001   1.408       .  S
C2005      C4022   1.408       .  A
C2005      C2010   1.420   1_655  A
C2006      C4021   1.408       .  A
C2006      C2007   1.400       .  A
C2006      H2015   1.083       .  S
C2007      C4024   1.419       .  A
C2007      S2011   1.804       .  S
C2008      C4023   1.419       .  A
C2008      C2009   1.407   1_655  A
C2009      C2010   1.398       .  A
C2009      H2016   1.083       .  S
C2010      S2012   1.803       .  S
S2011      H2014   1.408       .  S
S2012      H2013   1.407       .  S
O2017      C2028   1.288       .  A
O2017     Eu2053   2.453   1_545  S
O2018      C2029   1.291       .  A
O2018     Eu2052   2.462       .  S
O2019      C2030   1.293       .  A
O2019     Eu2025   2.470       .  S
O2020      C2031   1.292       .  A
O2021      C2031   1.291       .  A
O2021     Eu2055   2.454   1_545  S
O2022      C2030   1.291       .  A
O2022     Eu2054   2.453       .  S
O2023      C2029   1.293       .  A
O2023     Eu2529   2.467       .  S
O2024      C2028   1.292       .  A
O2024     Eu2025   2.458       .  S
Eu2025     O2527   2.467   1_554  S
Eu2025     O2027   2.349       .  S
Eu2025     O2537   2.352   1_554  S
O2026     Eu2559   2.355   1_545  S
O2027     Eu2053   2.345   1_545  S
O2027     Eu2054   2.352       .  S
C2028      C2512   1.495       .  S
C2029      C2473   1.498       .  S
C2030      C2416   1.481       .  S
C2031      C2392   1.474       .  S
H2032      O2033   0.966       .  S
O2033     Eu2529   2.353       .  S
O2033     Eu2558   2.358       .  S
O2033     Eu2052   2.352       .  S
H2034      O2035   0.966       .  S
O2035     Eu2055   2.356   1_544  S
O2036      C2059   1.290       .  A
O2036     Eu3060   2.457       .  S
O2037      C2060   1.288       .  A
O2037     Eu3061   2.439       .  S
O2038      C2061   1.291       .  A
O2038     Eu2558   2.454       .  S
O2039      C2062   1.291       .  A
O2039     Eu2559   2.450       .  S
O2040      C2063   1.290       .  A
O2040     Eu2055   2.450   1_554  S
O2041      C2064   1.291       .  A
O2041     Eu2054   2.456   1_565  S
O2042      C2065   1.289       .  A
O2042     Eu2056   2.454   1_556  S
O2043      C2066   1.287       .  A
O2044      C2065   1.293       .  A
O2044     Eu3062   2.469   1_556  S
O2045      C2066   1.294       .  A
O2045     Eu3063   2.473   1_556  S
O2046      C2061   1.289   1_565  A
O2046     Eu2052   2.441   1_565  S
O2047      C2064   1.288   1_545  A
O2047     Eu2053   2.444   1_545  S
O2048      C2063   1.289       .  A
O2049      C2062   1.289   1_545  A
O2050      C2059   1.291       .  A
O2050     Eu2560   2.454       .  S
O2051      C2060   1.292       .  A
O2051     Eu2056   2.463       .  S
Eu2052     O3044   2.457   1_545  S
Eu2052     O3066   2.352   1_545  S
Eu2053     O3045   2.439       .  S
Eu2053     O3076   2.358       .  S
Eu2054     O2542   2.452   1_554  S
Eu2054     O3052   2.469   1_544  S
Eu2054     O2537   2.357   1_554  S
Eu2054     O3076   2.351   1_545  S
Eu2054     O3570   2.347   1_544  S
Eu2055     O2543   2.453       .  S
Eu2055     O3053   2.474       .  S
Eu2055     O2530   2.355   1_565  S
Eu2055     O3065   2.346   1_556  S
Eu2055     O3582   2.343       .  S
Eu2056     O2554   2.453   1_554  S
Eu2056     O2068   2.346       .  S
Eu2056     O2562   2.345   1_554  S
O2057     Eu3063   2.346       .  S
O2058     Eu3060   2.352       .  S
O2058     Eu3566   2.346       .  S
O2058     Eu2560   2.345       .  S
C2059      C2485   1.492       .  S
C2060      C2500   1.479       .  S
C2061      C2437   1.473   1_545  S
C2062      C2425   1.478   1_565  S
C2063      C2461   1.474       .  S
C2064      C2452   1.467       .  S
C2065      C2404   1.492       .  S
C2066      C2380   1.472       .  S
H2067      O2068   0.965       .  S
O2068     Eu3061   2.358       .  S
O2068     Eu3062   2.351       .  S
H2069      O2070   0.966       .  S
O2070     Eu3567   2.342       .  S
O2071      C2082   1.289       .  A
O2071     Eu2107   2.457       .  S
O2072      C2083   1.289       .  A
O2072     Eu2106   2.454       .  S
O2073      C2084   1.291       .  A
O2073     Eu2079   2.454       .  S
O2074      C2085   1.292       .  A
O2075      C2085   1.293       .  A
O2075     Eu2109   2.468       .  S
O2076      C2084   1.291       .  A
O2076     Eu2108   2.449       .  S
O2077      C2083   1.295       .  A
O2077     Eu2079   2.474       .  S
O2078      C2082   1.293       .  A
O2078     Eu2079   2.463       .  S
Eu2079     O2081   2.356       .  S
Eu2079     O2087   2.356       .  S
O2080     Eu2109   2.351       .  S
O2081     Eu2107   2.347       .  S
O2081     Eu2108   2.350       .  S
C2082      C2509   1.497       .  S
C2083      C2476   1.497       .  S
C2084      C2305   1.479       .  S
C2085      C2281   1.483       .  S
H2086      O2087   0.965       .  S
O2087     Eu2108   2.361       .  S
O2087     Eu2106   2.344       .  S
H2088      O2089   0.965       .  S
O2089     Eu2109   2.351       .  S
O2090      C2113   1.288       .  A
O2090     Eu2106   2.448       .  S
O2091      C2114   1.290       .  A
O2091     Eu2107   2.455       .  S
O2092      C2115   1.290       .  A
O2092     Eu2108   2.453       .  S
O2093      C2116   1.290       .  A
O2093     Eu2109   2.448       .  S
O2094      C2117   1.291       .  A
O2094     Eu2109   2.456       .  S
O2095      C2118   1.292       .  A
O2095     Eu2108   2.466       .  S
O2096      C2119   1.289       .  A
O2096     Eu2110   2.449       .  S
O2097      C2120   1.290       .  A
O2098      C2119   1.291       .  A
O2098     Eu2108   2.461       .  S
O2099      C2120   1.293       .  A
O2099     Eu2109   2.465       .  S
O2100      C2115   1.289       .  A
O2100     Eu2106   2.449       .  S
O2101      C2118   1.289       .  A
O2101     Eu2107   2.452       .  S
O2102      C2117   1.288       .  A
O2103      C2116   1.287       .  A
O2104      C2113   1.291       .  A
O2104     Eu2110   2.454       .  S
O2105      C2114   1.289       .  A
O2105     Eu2110   2.445       .  S
Eu2106     O2112   2.342       .  S
Eu2107     O2122   2.351       .  S
Eu2108     O2122   2.355       .  S
Eu2108     O2112   2.345       .  S
Eu2109     O2111   2.349       .  S
Eu2109     O2124   2.356       .  S
Eu2110     O2122   2.357       .  S
Eu2110     O2112   2.343       .  S
C2113      C2488   1.489       .  S
C2114      C2497   1.481       .  S
C2115      C2353   1.468       .  S
C2116      C2365   1.471       .  S
C2117      C2329   1.473       .  S
C2118      C2341   1.473       .  S
C2119      C2317   1.468       .  S
C2120      C2293   1.485       .  S
H2121      O2122   0.966       .  S
H2123      O2124   0.966       .  S
O2125      C2136   1.292       .  A
O2125     Eu2161   2.457       .  S
O2126      C2137   1.290       .  A
O2126     Eu2160   2.455       .  S
O2127      C2138   1.292       .  A
O2127     Eu2133   2.465       .  S
O2128      C2139   1.292       .  A
O2128     Eu3141   2.461   1_545  S
O2129      C2139   1.292       .  A
O2129     Eu2163   2.464       .  S
O2130      C2138   1.293       .  A
O2130     Eu2162   2.468       .  S
O2131      C2137   1.288       .  A
O2131     Eu2133   2.442       .  S
O2132      C2136   1.288       .  A
O2132     Eu2133   2.438       .  S
Eu2133     O3136   2.461       .  S
Eu2133     O3151   2.357       .  S
Eu2133     O2135   2.346       .  S
Eu2133     O3142   2.350       .  S
Eu2133     O2141   2.349       .  S
O2134     Eu3141   2.350   1_545  S
O2134     Eu2163   2.349       .  S
O2134     Eu3168   2.349       .  S
O2135     Eu2161   2.355       .  S
O2135     Eu2162   2.350       .  S
C2136      C3472   1.472       .  S
C2137      C3457   1.467       .  S
C2138      C2245   1.493       .  S
C2139      C2233   1.485       .  S
H2140      O2141   0.966       .  S
O2141     Eu2162   2.354       .  S
O2141     Eu2160   2.356       .  S
H2142      O2143   0.966       .  S
O2143     Eu3141   2.357   1_545  S
O2143     Eu3169   2.345       .  S
O2143     Eu2163   2.346       .  S
O2144      C2167   1.292       .  A
O2144     Eu2160   2.461       .  S
O2145      C2168   1.292       .  A
O2145     Eu2161   2.458       .  S
O2146      C2169   1.290       .  A
O2146     Eu2162   2.454       .  S
O2147      C2170   1.288       .  A
O2147     Eu2163   2.444       .  S
O2148      C2171   1.288       .  A
O2148     Eu2163   2.443       .  S
O2149      C2172   1.291       .  A
O2149     Eu2162   2.459       .  S
O2150      C2173   1.292       .  A
O2150     Eu2164   2.465       .  S
O2151      C2174   1.292       .  A
O2151     Eu3172   2.461       .  S
O2152      C2173   1.292       .  A
O2152     Eu2162   2.465       .  S
O2153      C2174   1.290       .  A
O2153     Eu2163   2.451       .  S
O2154      C2169   1.290       .  A
O2154     Eu2160   2.447       .  S
O2155      C2172   1.290       .  A
O2155     Eu2161   2.447       .  S
O2156      C2171   1.295       .  A
O2156     Eu3169   2.479       .  S
O2157      C2170   1.291       .  A
O2157     Eu3168   2.454       .  S
O2158      C2167   1.287       .  A
O2158     Eu2164   2.438       .  S
O2159      C2168   1.288       .  A
O2159     Eu2164   2.438       .  S
Eu2160     O3165   2.454       .  S
Eu2160     O3142   2.348       .  S
Eu2160     O3186   2.346       .  S
Eu2160     O2166   2.354       .  S
Eu2161     O3164   2.479       .  S
Eu2161     O3151   2.345       .  S
Eu2161     O3173   2.346       .  S
Eu2161     O2176   2.357       .  S
Eu2162     O2176   2.349       .  S
Eu2162     O2166   2.353       .  S
Eu2163     O2165   2.351       .  S
Eu2163     O2178   2.350       .  S
Eu2164     O3159   2.461       .  S
Eu2164     O3173   2.353       .  S
Eu2164     O2176   2.349       .  S
Eu2164     O3186   2.352       .  S
Eu2164     O2166   2.348       .  S
O2165     Eu3169   2.346       .  S
O2165     Eu3172   2.353       .  S
C2167      C3448   1.472       .  S
C2168      C3436   1.475       .  S
C2169      C2320   1.465       .  S
C2170      C2308   1.478       .  S
C2171      C2284   1.482       .  S
C2172      C2296   1.480       .  S
C2173      C2257   1.486       .  S
C2174      C2269   1.477       .  S
H2175      O2176   0.966       .  S
H2177      O2178   0.965       .  S
O2178     Eu3168   2.346       .  S
O2178     Eu3172   2.352       .  S
O2179      C2190   1.288       .  A
O2179     Eu2215   2.442       .  S
O2180      C2191   1.289       .  A
O2180     Eu2214   2.448       .  S
O2181      C2192   1.291       .  A
O2181     Eu2691   2.456   1_554  S
O2182      C2193   1.290       .  A
O2182     Eu2187   2.454       .  S
O2183      C2193   1.290       .  A
O2183     Eu2217   2.454       .  S
O2184      C2192   1.290       .  A
O2184     Eu2216   2.453       .  S
O2185      C2191   1.293       .  A
O2185     Eu2187   2.463       .  S
O2186      C2190   1.293       .  A
O2186     Eu2187   2.472       .  S
Eu2187     O2685   2.458       .  S
Eu2187     O2197   2.355       .  S
Eu2187     O2693   2.348       .  S
Eu2187     O2188   2.355       .  S
Eu2187     O2699   2.350       .  S
O2188     Eu2217   2.347       .  S
O2188     Eu2214   2.355       .  S
O2189     Eu2691   2.348   1_554  S
O2189     Eu2719   2.347   1_554  S
O2189     Eu2216   2.351       .  S
C2190      C2917   1.480       .  S
C2191      C2905   1.482       .  S
C2192      C2344   1.470       .  S
C2193      C2356   1.469       .  S
H2194      O2195   0.967       .  S
O2195     Eu2691   2.351   1_554  S
O2195     Eu2216   2.344       .  S
O2195     Eu2718   2.351       .  S
H2196      O2197   0.966       .  S
O2197     Eu2215   2.356       .  S
O2197     Eu2217   2.358       .  S
O2198      C2221   1.292       .  A
O2198     Eu2214   2.465       .  S
O2199      C2222   1.287       .  A
O2199     Eu2215   2.437       .  S
O2200      C2223   1.292       .  A
O2200     Eu2216   2.468       .  S
O2201      C2224   1.291       .  A
O2201     Eu2217   2.458       .  S
O2202      C2225   1.292       .  A
O2202     Eu2217   2.463       .  S
O2203      C2226   1.292       .  A
O2203     Eu2216   2.461       .  S
O2204      C2227   1.291       .  A
O2204     Eu2722   2.453       .  S
O2205      C2228   1.289       .  A
O2205     Eu2218   2.446       .  S
O2206      C2227   1.289       .  A
O2206     Eu2216   2.449       .  S
O2207      C2228   1.289       .  A
O2207     Eu2217   2.449       .  S
O2208      C2223   1.293       .  A
O2208     Eu2718   2.463       .  S
O2209      C2226   1.291       .  A
O2209     Eu2719   2.462   1_554  S
O2210      C2225   1.292       .  A
O2210     Eu2215   2.463       .  S
O2211      C2224   1.292       .  A
O2211     Eu2214   2.464       .  S
O2212      C2221   1.290       .  A
O2212     Eu2218   2.452       .  S
O2213      C2222   1.291       .  A
O2213     Eu2218   2.459       .  S
Eu2214     O2712   2.463       .  S
Eu2214     O2699   2.352       .  S
Eu2214     O2232   2.350       .  S
Eu2214     O2724   2.350       .  S
Eu2215     O2713   2.462       .  S
Eu2215     O2693   2.347       .  S
Eu2215     O2219   2.346       .  S
Eu2215     O2734   2.355       .  S
Eu2216     O2230   2.355       .  S
Eu2216     O2220   2.354       .  S
Eu2217     O2219   2.350       .  S
Eu2217     O2232   2.353       .  S
Eu2218     O2708   2.456       .  S
Eu2218     O2219   2.348       .  S
Eu2218     O2734   2.350       .  S
Eu2218     O2232   2.355       .  S
Eu2218     O2724   2.354       .  S
O2220     Eu2718   2.350       .  S
O2220     Eu2722   2.354       .  S
C2221      C2881   1.477       .  S
C2222      C2893   1.470       .  S
C2223      C2248   1.495       .  S
C2224      C2260   1.485       .  S
C2225      C2272   1.480       .  S
C2226      C2236   1.484       .  S
C2227      C2332   1.475       .  S
C2228      C2368   1.471       .  S
H2229      O2230   0.966       .  S
O2230     Eu2719   2.355   1_554  S
O2230     Eu2722   2.350       .  S
H2231      O2232   0.966       .  S
C2233      C2234   1.406       .  A
C2233      C2238   1.416       .  A
C2234      C2235   1.401       .  A
C2234      H2243   1.084       .  S
C2235      C2236   1.416       .  A
C2235      S2239   1.804       .  S
C2236      C2237   1.405       .  A
C2237      C2238   1.400       .  A
C2237      H2244   1.084       .  S
C2238      S2240   1.805       .  S
S2239      H2242   1.407       .  S
S2240      H2241   1.407       .  S
C2245      C2246   1.407       .  A
C2245      C2250   1.417       .  A
C2246      C2247   1.404       .  A
C2246      H2255   1.084       .  S
C2247      C2248   1.419       .  A
C2247      S2251   1.803       .  S
C2248      C2249   1.406       .  A
C2249      C2250   1.399       .  A
C2249      H2256   1.082       .  S
C2250      S2252   1.804       .  S
S2251      H2254   1.406       .  S
S2252      H2253   1.408       .  S
C2257      C2258   1.405       .  A
C2257      C2262   1.416       .  A
C2258      C2259   1.400       .  A
C2258      H2267   1.084       .  S
C2259      C2260   1.416       .  A
C2259      S2263   1.805       .  S
C2260      C2261   1.405       .  A
C2261      C2262   1.402       .  A
C2261      H2268   1.084       .  S
C2262      S2264   1.805       .  S
S2263      H2266   1.407       .  S
S2264      H2265   1.406       .  S
C2269      C2270   1.403       .  A
C2269      C2274   1.415       .  A
C2270      C2271   1.400       .  A
C2270      H2279   1.084       .  S
C2271      C2272   1.415       .  A
C2271      S2275   1.805       .  S
C2272      C2273   1.404       .  A
C2273      C2274   1.401       .  A
C2273      H2280   1.084       .  S
C2274      S2276   1.806       .  S
S2275      H2278   1.407       .  S
S2276      H2277   1.407       .  S
C2281      C2282   1.403       .  A
C2281      C2286   1.414       .  A
C2282      C2283   1.402       .  A
C2282      H2291   1.084       .  S
C2283      C2284   1.418       .  A
C2283      S2287   1.805       .  S
C2284      C2285   1.403       .  A
C2285      C2286   1.401       .  A
C2285      H2292   1.084       .  S
C2286      S2288   1.801       .  S
S2287      H2290   1.406       .  S
S2288      H2289   1.407       .  S
C2293      C2294   1.405       .  A
C2293      C2298   1.417       .  A
C2294      C2295   1.398       .  A
C2294      H2303   1.084       .  S
C2295      C2296   1.414       .  A
C2295      S2299   1.804       .  S
C2296      C2297   1.404       .  A
C2297      C2298   1.397       .  A
C2297      H2304   1.084       .  S
C2298      S2300   1.799       .  S
S2299      H2302   1.407       .  S
S2300      H2301   1.407       .  S
C2305      C2306   1.402       .  A
C2305      C2310   1.413       .  A
C2306      C2307   1.396       .  A
C2306      H2315   1.082       .  S
C2307      C2308   1.416       .  A
C2307      S2311   1.804       .  S
C2308      C2309   1.403       .  A
C2309      C2310   1.396       .  A
C2309      H2316   1.084       .  S
C2310      S2312   1.798       .  S
S2311      H2314   1.408       .  S
S2312      H2313   1.409       .  S
C2317      C2318   1.402       .  A
C2317      C2322   1.410       .  A
C2318      C2319   1.399       .  A
C2318      H2327   1.084       .  S
C2319      C2320   1.413       .  A
C2319      S2323   1.806       .  S
C2320      C2321   1.401       .  A
C2321      C2322   1.396       .  A
C2321      H2328   1.084       .  S
C2322      S2324   1.802       .  S
S2323      H2326   1.406       .  S
S2324      H2325   1.407       .  S
C2329      C2330   1.403       .  A
C2329      C2334   1.414       .  A
C2330      C2331   1.399       .  A
C2330      H2339   1.084       .  S
C2331      C2332   1.416       .  A
C2331      S2335   1.805       .  S
C2332      C2333   1.402       .  A
C2333      C2334   1.395       .  A
C2333      H2340   1.084       .  S
C2334      S2336   1.803       .  S
S2335      H2338   1.407       .  S
S2336      H2337   1.407       .  S
C2341      C2342   1.403       .  A
C2341      C2346   1.412       .  A
C2342      C2343   1.400       .  A
C2342      H2351   1.084       .  S
C2343      C2344   1.413       .  A
C2343      S2347   1.805       .  S
C2344      C2345   1.402       .  A
C2345      C2346   1.398       .  A
C2345      H2352   1.084       .  S
C2346      S2348   1.801       .  S
S2347      H2350   1.405       .  S
S2348      H2349   1.406       .  S
C2353      C2354   1.404       .  A
C2353      C2358   1.411       .  A
C2354      C2355   1.400       .  A
C2354      H2363   1.084       .  S
C2355      C2356   1.413       .  A
C2355      S2359   1.805       .  S
C2356      C2357   1.402       .  A
C2357      C2358   1.396       .  A
C2357      H2364   1.084       .  S
C2358      S2360   1.806       .  S
S2359      H2362   1.407       .  S
S2360      H2361   1.407       .  S
C2365      C2366   1.403       .  A
C2365      C2370   1.415       .  A
C2366      C2367   1.393       .  A
C2366      H2375   1.084       .  S
C2367      C2368   1.413       .  A
C2367      S2371   1.804       .  S
C2368      C2369   1.404       .  A
C2369      C2370   1.397       .  A
C2369      H2376   1.084       .  S
C2370      S2372   1.806       .  S
S2371      H2374   1.406       .  S
S2372      H2373   1.407       .  S
C2377      C2725   1.475       .  S
C2377      C2882   1.405   1_554  A
C2377      C2382   1.411       .  A
C2378      C2881   1.405       .  A
C2378      C2379   1.401       .  A
C2378      H2387   1.084       .  S
C2379      C2884   1.416       .  A
C2379      S2383   1.806       .  S
C2380      C2883   1.416       .  A
C2380      C2381   1.400   1_556  A
C2381      C2382   1.395       .  A
C2381      H2388   1.084       .  S
C2382      S2384   1.801       .  S
S2383      H2386   1.406       .  S
S2384      H2385   1.407       .  S
C2389      C2726   1.469       .  S
C2389      C2894   1.400       .  A
C2389      C2394   1.415   1_556  A
C2390      C2893   1.400       .  A
C2390      C2391   1.395       .  A
C2390      H2399   1.084       .  S
C2391      C2896   1.412       .  A
C2391      S2395   1.799       .  S
C2392      C2895   1.412       .  A
C2392      C2393   1.403   1_556  A
C2393      C2394   1.398       .  A
C2393      H2400   1.084       .  S
C2394      S2396   1.805       .  S
S2395      H2398   1.408       .  S
S2396      H2397   1.407       .  S
C2401      C2695   1.483       .  S
C2401      C2906   1.401   1_554  A
C2401      C2406   1.416       .  A
C2402      C2905   1.400       .  A
C2402      C2403   1.396       .  A
C2402      H2411   1.084       .  S
C2403      C2908   1.417       .  A
C2403      S2407   1.791       .  S
C2404      C2907   1.418       .  A
C2404      C2405   1.404   1_556  A
C2405      C2406   1.401       .  A
C2405      H2412   1.081       .  S
C2406      S2408   1.803       .  S
S2407      H2410   1.408       .  S
S2408      H2409   1.409       .  S
C2413      C2694   1.479       .  S
C2413      C2414   1.404   1_556  A
C2413      C2922   1.415       .  A
C2414      C2415   1.401       .  A
C2414      H2423   1.084       .  S
C2415      C2416   1.414       .  A
C2415      S2419   1.802       .  S
C2416      C2921   1.404   1_554  A
C2417      C2920   1.404       .  A
C2417      C2418   1.398       .  A
C2417      H2424   1.084       .  S
C2418      C2917   1.416       .  A
C2418      S2420   1.805       .  S
S2419      H2422   1.407       .  S
S2420      H2421   1.407       .  S
C2425      C3434   1.405   1_545  A
C2425      C2430   1.416       .  A
C2426      C3433   1.405       .  A
C2426      C2427   1.397       .  A
C2426      H2435   1.084       .  S
C2427      C3436   1.415       .  A
C2427      S2431   1.805       .  S
C2428      C3176   1.475       .  S
C2428      C3435   1.415       .  A
C2428      C2429   1.402   1_565  A
C2429      C2430   1.396       .  A
C2429      H2436   1.084       .  S
C2430      S2432   1.804       .  S
S2431      H2434   1.407       .  S
S2432      H2433   1.407       .  S
C2437      C2438   1.403   1_565  A
C2437      C3450   1.414       .  A
C2438      C2439   1.397       .  A
C2438      H2447   1.084       .  S
C2439      C2440   1.416       .  A
C2439      S2443   1.806       .  S
C2440      C3175   1.472       .  S
C2440      C3449   1.402   1_545  A
C2441      C3448   1.402       .  A
C2441      C2442   1.395       .  A
C2441      H2448   1.084       .  S
C2442      C3445   1.414       .  A
C2442      S2444   1.805       .  S
S2443      H2446   1.406       .  S
S2444      H2445   1.408       .  S
C2449      C3145   1.467       .  S
C2449      C3458   1.402   1_545  A
C2449      C2454   1.412       .  A
C2450      C3457   1.402       .  A
C2450      C2451   1.396       .  A
C2450      H2459   1.084       .  S
C2451      C3460   1.411       .  A
C2451      S2455   1.800       .  S
C2452      C3459   1.411       .  A
C2452      C2453   1.402   1_565  A
C2453      C2454   1.398       .  A
C2453      H2460   1.084       .  S
C2454      S2456   1.805       .  S
S2455      H2458   1.405       .  S
S2456      H2457   1.407       .  S
C2461      C2462   1.404   1_565  A
C2461      C3474   1.414       .  A
C2462      C2463   1.396       .  A
C2462      H2471   1.084       .  S
C2463      C2464   1.415   1_545  A
C2463      S2467   1.805       .  S
C2464      C3144   1.472       .  S
C2464      C3473   1.403       .  A
C2465      C3472   1.403       .  A
C2465      C2466   1.396       .  A
C2465      H2472   1.084       .  S
C2466      C3469   1.414       .  A
C2466      S2468   1.804       .  S
S2467      H2470   1.407       .  S
S2468      H2469   1.407       .  S
C2473      C2474   1.408       .  A
C2474      C2475   1.402       .  A
C2474      H2483   1.082       .  S
C2475      C2476   1.419       .  A
C2475      S2479   1.804       .  S
C2477      C2478   1.400       .  A
C2477      H2484   1.080       .  S
C2478      S2480   1.804       .  S
S2479      H2482   1.407       .  S
S2480      H2481   1.408       .  S
C2485      C2490   1.416       .  A
C2486      C2487   1.402       .  A
C2486      H2495   1.076       .  S
C2487      S2491   1.811       .  S
C2488      C2489   1.404       .  A
C2489      C2490   1.396       .  A
C2489      H2496   1.080       .  S
C2490      S2492   1.803       .  S
S2491      H2494   1.405       .  S
S2492      H2493   1.408       .  S
C2497      C2498   1.404       .  A
C2498      C2499   1.396       .  A
C2498      H2507   1.082       .  S
C2499      C2500   1.416       .  A
C2499      S2503   1.805       .  S
C2501      C2502   1.398       .  A
C2501      H2508   1.084       .  S
C2502      S2504   1.804       .  S
S2503      H2506   1.406       .  S
S2504      H2505   1.408       .  S
C2509      C2514   1.420       .  A
C2510      C2511   1.400       .  A
C2510      H2519   1.083       .  S
C2511      S2515   1.804       .  S
C2512      C2513   1.406       .  A
C2513      C2514   1.398       .  A
C2513      H2520   1.083       .  S
C2514      S2516   1.803       .  S
S2515      H2518   1.408       .  S
S2516      H2517   1.407       .  S
O2521      C2532   1.289       .  A
O2521     Eu2557   2.455   1_545  S
O2522      C2533   1.290       .  A
O2522     Eu2556   2.459   1_545  S
O2523      C2534   1.293       .  A
O2523     Eu2529   2.471       .  S
O2524      C2535   1.291       .  A
O2525      C2535   1.291       .  A
O2525     Eu2559   2.454   1_545  S
O2526      C2534   1.291       .  A
O2526     Eu2558   2.452       .  S
O2527      C2533   1.293       .  A
O2528      C2532   1.292       .  A
O2528     Eu2529   2.457       .  S
Eu2529     O2531   2.348       .  S
O2531     Eu2557   2.346   1_545  S
O2531     Eu2558   2.352       .  S
C2532      C3016   1.495       .  S
C2533      C2977   1.497       .  S
C2534      C2920   1.482       .  S
C2535      C2896   1.473       .  S
H2536      O2537   0.966       .  S
O2537     Eu2556   2.352   1_545  S
H2538      O2539   0.966       .  S
O2539     Eu2559   2.354   1_545  S
O2540      C2563   1.290       .  A
O2540     Eu3564   2.457       .  S
O2541      C2564   1.287       .  A
O2541     Eu3565   2.439       .  S
O2542      C2565   1.290       .  A
O2543      C2566   1.291       .  A
O2544      C2567   1.290       .  A
O2544     Eu2559   2.451       .  S
O2545      C2568   1.291       .  A
O2545     Eu2558   2.455   1_565  S
O2546      C2569   1.291       .  A
O2546     Eu2560   2.459       .  S
O2547      C2570   1.287       .  A
O2548      C2569   1.293       .  A
O2548     Eu3566   2.469       .  S
O2549      C2570   1.294       .  A
O2549     Eu3567   2.471       .  S
O2550      C2565   1.289   1_565  A
O2550     Eu2556   2.444       .  S
O2551      C2568   1.288   1_545  A
O2551     Eu2557   2.443   1_545  S
O2552      C2567   1.289       .  A
O2553      C2566   1.289       .  A
O2554      C2563   1.291       .  A
O2555      C2564   1.293       .  A
O2555     Eu2560   2.467       .  S
Eu2556     O3548   2.457       .  S
Eu2556     O3570   2.351       .  S
Eu2557     O3549   2.439       .  S
Eu2557     O3580   2.359       .  S
Eu2558     O3556   2.469   1_545  S
Eu2558     O3580   2.351   1_545  S
Eu2558     O3066   2.346   1_545  S
Eu2559     O3557   2.471       .  S
Eu2559     O3569   2.347       .  S
Eu2559     O3078   2.342       .  S
Eu2560     O2572   2.344       .  S
O2561     Eu3567   2.347       .  S
O2562     Eu3564   2.351       .  S
O2562     Eu3062   2.347   1_556  S
C2563      C2989   1.492       .  S
C2564      C3004   1.479       .  S
C2565      C2941   1.472   1_545  S
C2566      C2929   1.480   1_565  S
C2567      C2965   1.474       .  S
C2568      C2956   1.465       .  S
C2569      C2908   1.492       .  S
C2570      C2884   1.472       .  S
H2571      O2572   0.965       .  S
O2572     Eu3565   2.359       .  S
O2572     Eu3566   2.351       .  S
H2573      O2574   0.966       .  S
O2574     Eu3063   2.343   1_556  S
O2575      C2586   1.290       .  A
O2575     Eu2611   2.459       .  S
O2576      C2587   1.290       .  A
O2576     Eu2610   2.456       .  S
O2577      C2588   1.292       .  A
O2577     Eu2583   2.457       .  S
O2578      C2589   1.293       .  A
O2579      C2589   1.293       .  A
O2579     Eu2613   2.469       .  S
O2580      C2588   1.290       .  A
O2580     Eu2612   2.445       .  S
O2581      C2587   1.294       .  A
O2581     Eu2583   2.469       .  S
O2582      C2586   1.293       .  A
O2582     Eu2583   2.461       .  S
Eu2583     O2585   2.357       .  S
Eu2583     O2591   2.355       .  S
O2584     Eu2613   2.352       .  S
O2585     Eu2611   2.347       .  S
O2585     Eu2612   2.351       .  S
C2586      C3013   1.497       .  S
C2587      C2980   1.496       .  S
C2588      C2809   1.477       .  S
C2589      C2785   1.484       .  S
H2590      O2591   0.965       .  S
O2591     Eu2612   2.361       .  S
O2591     Eu2610   2.342       .  S
H2592      O2593   0.965       .  S
O2593     Eu2613   2.352       .  S
O2594      C2617   1.288       .  A
O2594     Eu2610   2.446       .  S
O2595      C2618   1.291       .  A
O2595     Eu2611   2.457       .  S
O2596      C2619   1.289       .  A
O2596     Eu2612   2.452       .  S
O2597      C2620   1.291       .  A
O2597     Eu2613   2.451       .  S
O2598      C2621   1.291       .  A
O2598     Eu2613   2.458       .  S
O2599      C2622   1.292       .  A
O2599     Eu2612   2.466       .  S
O2600      C2623   1.289       .  A
O2600     Eu2614   2.448       .  S
O2601      C2624   1.289       .  A
O2602      C2623   1.291       .  A
O2602     Eu2612   2.461       .  S
O2603      C2624   1.293       .  A
O2603     Eu2613   2.468       .  S
O2604      C2619   1.290       .  A
O2604     Eu2610   2.450       .  S
O2605      C2622   1.290       .  A
O2605     Eu2611   2.453       .  S
O2606      C2621   1.289       .  A
O2607      C2620   1.287       .  A
O2608      C2617   1.292       .  A
O2608     Eu2614   2.458       .  S
O2609      C2618   1.290       .  A
O2609     Eu2614   2.449       .  S
Eu2610     O2616   2.344       .  S
Eu2611     O2626   2.352       .  S
Eu2612     O2626   2.354       .  S
Eu2612     O2616   2.345       .  S
Eu2613     O2615   2.349       .  S
Eu2613     O2628   2.355       .  S
Eu2614     O2626   2.357       .  S
Eu2614     O2616   2.345       .  S
C2617      C2992   1.489       .  S
C2618      C3001   1.482       .  S
C2619      C2857   1.468       .  S
C2620      C2869   1.472       .  S
C2621      C2833   1.473       .  S
C2622      C2845   1.473       .  S
C2623      C2821   1.467       .  S
C2624      C2797   1.487       .  S
H2625      O2626   0.966       .  S
H2627      O2628   0.966       .  S
O2629      C2640   1.292       .  A
O2629     Eu2665   2.460       .  S
O2630      C2641   1.290       .  A
O2630     Eu2664   2.456       .  S
O2631      C2642   1.291       .  A
O2631     Eu2637   2.464       .  S
O2632      C2643   1.292       .  A
O2632     Eu3645   2.460   1_545  S
O2633      C2643   1.292       .  A
O2633     Eu2667   2.465       .  S
O2634      C2642   1.293       .  A
O2634     Eu2666   2.467       .  S
O2635      C2641   1.288       .  A
O2635     Eu2637   2.443       .  S
O2636      C2640   1.287       .  A
O2636     Eu2637   2.436       .  S
Eu2637     O3640   2.459       .  S
Eu2637     O3655   2.358       .  S
Eu2637     O2639   2.346       .  S
Eu2637     O3646   2.350       .  S
Eu2637     O2645   2.348       .  S
O2638     Eu3645   2.350   1_545  S
O2638     Eu2667   2.349       .  S
O2638     Eu3672   2.348       .  S
O2639     Eu2665   2.355       .  S
O2639     Eu2666   2.349       .  S
C2640      C3976   1.472       .  S
C2641      C3961   1.467       .  S
C2642      C2749   1.493       .  S
C2643      C2737   1.485       .  S
H2644      O2645   0.966       .  S
O2645     Eu2666   2.355       .  S
O2645     Eu2664   2.356       .  S
H2646      O2647   0.966       .  S
O2647     Eu3645   2.358   1_545  S
O2647     Eu3673   2.346       .  S
O2647     Eu2667   2.346       .  S
O2648      C2671   1.292       .  A
O2648     Eu2664   2.461       .  S
O2649      C2672   1.293       .  A
O2649     Eu2665   2.462       .  S
O2650      C2673   1.290       .  A
O2650     Eu2666   2.453       .  S
O2651      C2674   1.288       .  A
O2651     Eu2667   2.443       .  S
O2652      C2675   1.288       .  A
O2652     Eu2667   2.444       .  S
O2653      C2676   1.292       .  A
O2653     Eu2666   2.462       .  S
O2654      C2677   1.292       .  A
O2654     Eu2668   2.465       .  S
O2655      C2678   1.292       .  A
O2655     Eu3676   2.463       .  S
O2656      C2677   1.293       .  A
O2656     Eu2666   2.466       .  S
O2657      C2678   1.290       .  A
O2657     Eu2667   2.451       .  S
O2658      C2673   1.289       .  A
O2658     Eu2664   2.448       .  S
O2659      C2676   1.290       .  A
O2659     Eu2665   2.446       .  S
O2660      C2675   1.295       .  A
O2660     Eu3673   2.478       .  S
O2661      C2674   1.291       .  A
O2661     Eu3672   2.454       .  S
O2662      C2671   1.288       .  A
O2662     Eu2668   2.441       .  S
O2663      C2672   1.288       .  A
O2663     Eu2668   2.438       .  S
Eu2664     O3669   2.454       .  S
Eu2664     O3646   2.348       .  S
Eu2664     O3690   2.348       .  S
Eu2664     O2670   2.354       .  S
Eu2665     O3668   2.478       .  S
Eu2665     O3655   2.346       .  S
Eu2665     O3677   2.346       .  S
Eu2665     O2680   2.358       .  S
Eu2666     O2680   2.349       .  S
Eu2666     O2670   2.353       .  S
Eu2667     O2669   2.350       .  S
Eu2667     O2682   2.352       .  S
Eu2668     O3663   2.463       .  S
Eu2668     O3677   2.354       .  S
Eu2668     O2680   2.350       .  S
Eu2668     O3690   2.352       .  S
Eu2668     O2670   2.348       .  S
O2669     Eu3673   2.346       .  S
O2669     Eu3676   2.354       .  S
C2671      C3952   1.472       .  S
C2672      C3940   1.477       .  S
C2673      C2824   1.465       .  S
C2674      C2812   1.477       .  S
C2675      C2788   1.482       .  S
C2676      C2800   1.482       .  S
C2677      C2761   1.487       .  S
C2678      C2773   1.478       .  S
H2679      O2680   0.966       .  S
H2681      O2682   0.965       .  S
O2682     Eu3672   2.348       .  S
O2682     Eu3676   2.352       .  S
O2683      C2694   1.288       .  A
O2683     Eu2719   2.443       .  S
O2684      C2695   1.290   1_556  A
O2684     Eu2718   2.451   1_556  S
O2685      C2696   1.291       .  A
O2686      C2697   1.290       .  A
O2686     Eu2691   2.454       .  S
O2687      C2697   1.289       .  A
O2687     Eu2721   2.450       .  S
O2688      C2696   1.290       .  A
O2688     Eu2720   2.453       .  S
O2689      C2695   1.293   1_556  A
O2689     Eu2691   2.459       .  S
O2690      C2694   1.293       .  A
O2690     Eu2691   2.471       .  S
Eu2691     O2701   2.354       .  S
Eu2691     O2692   2.355       .  S
O2692     Eu2721   2.348       .  S
O2692     Eu2718   2.355   1_556  S
O2693     Eu2720   2.351       .  S
C2696      C2848   1.471       .  S
C2697      C2860   1.468       .  S
H2698      O2699   0.967       .  S
O2699     Eu2720   2.346       .  S
H2700      O2701   0.967       .  S
O2701     Eu2719   2.356       .  S
O2701     Eu2721   2.358       .  S
O2702      C2725   1.293       .  A
O2702     Eu2718   2.467       .  S
O2703      C2726   1.287       .  A
O2703     Eu2719   2.437       .  S
O2704      C2727   1.292       .  A
O2704     Eu2720   2.468       .  S
O2705      C2728   1.291       .  A
O2705     Eu2721   2.459       .  S
O2706      C2729   1.292       .  A
O2706     Eu2721   2.463       .  S
O2707      C2730   1.292       .  A
O2707     Eu2720   2.461       .  S
O2708      C2731   1.291       .  A
O2709      C2732   1.289       .  A
O2709     Eu2722   2.443   1_556  S
O2710      C2731   1.290       .  A
O2710     Eu2720   2.451       .  S
O2711      C2732   1.289       .  A
O2711     Eu2721   2.447       .  S
O2712      C2727   1.293       .  A
O2713      C2730   1.292       .  A
O2714      C2729   1.292       .  A
O2714     Eu2719   2.462       .  S
O2715      C2728   1.292       .  A
O2715     Eu2718   2.464   1_556  S
O2716      C2725   1.289       .  A
O2716     Eu2722   2.449       .  S
O2717      C2726   1.291       .  A
O2717     Eu2722   2.457   1_556  S
Eu2718     O2736   2.350   1_554  S
Eu2719     O2723   2.345       .  S
Eu2720     O2734   2.355       .  S
Eu2720     O2724   2.354       .  S
Eu2721     O2723   2.349       .  S
Eu2721     O2736   2.352       .  S
Eu2722     O2723   2.346   1_554  S
Eu2722     O2736   2.354   1_554  S
C2727      C2752   1.496       .  S
C2728      C2764   1.485       .  S
C2729      C2776   1.480       .  S
C2730      C2740   1.484       .  S
C2731      C2836   1.476       .  S
C2732      C2872   1.471       .  S
H2733      O2734   0.966       .  S
H2735      O2736   0.966       .  S
C2737      C2738   1.406       .  A
C2737      C2742   1.415       .  A
C2738      C2739   1.402       .  A
C2738      H2747   1.084       .  S
C2739      C2740   1.416       .  A
C2739      S2743   1.804       .  S
C2740      C2741   1.405       .  A
C2741      C2742   1.400       .  A
C2741      H2748   1.084       .  S
C2742      S2744   1.804       .  S
S2743      H2746   1.407       .  S
S2744      H2745   1.408       .  S
C2749      C2750   1.407       .  A
C2749      C2754   1.417       .  A
C2750      C2751   1.404       .  A
C2750      H2759   1.084       .  S
C2751      C2752   1.419       .  A
C2751      S2755   1.803       .  S
C2752      C2753   1.406       .  A
C2753      C2754   1.399       .  A
C2753      H2760   1.081       .  S
C2754      S2756   1.804       .  S
S2755      H2758   1.407       .  S
S2756      H2757   1.408       .  S
C2761      C2762   1.406       .  A
C2761      C2766   1.417       .  A
C2762      C2763   1.401       .  A
C2762      H2771   1.084       .  S
C2763      C2764   1.416       .  A
C2763      S2767   1.805       .  S
C2764      C2765   1.405       .  A
C2765      C2766   1.402       .  A
C2765      H2772   1.084       .  S
C2766      S2768   1.804       .  S
S2767      H2770   1.407       .  S
S2768      H2769   1.407       .  S
C2773      C2774   1.404       .  A
C2773      C2778   1.415       .  A
C2774      C2775   1.400       .  A
C2774      H2783   1.084       .  S
C2775      C2776   1.415       .  A
C2775      S2779   1.805       .  S
C2776      C2777   1.404       .  A
C2777      C2778   1.400       .  A
C2777      H2784   1.084       .  S
C2778      S2780   1.806       .  S
S2779      H2782   1.407       .  S
S2780      H2781   1.407       .  S
C2785      C2786   1.404       .  A
C2785      C2790   1.415       .  A
C2786      C2787   1.402       .  A
C2786      H2795   1.084       .  S
C2787      C2788   1.418       .  A
C2787      S2791   1.805       .  S
C2788      C2789   1.402       .  A
C2789      C2790   1.400       .  A
C2789      H2796   1.084       .  S
C2790      S2792   1.801       .  S
S2791      H2794   1.406       .  S
S2792      H2793   1.407       .  S
C2797      C2798   1.406       .  A
C2797      C2802   1.417       .  A
C2798      C2799   1.399       .  A
C2798      H2807   1.084       .  S
C2799      C2800   1.414       .  A
C2799      S2803   1.804       .  S
C2800      C2801   1.404       .  A
C2801      C2802   1.398       .  A
C2801      H2808   1.084       .  S
C2802      S2804   1.799       .  S
S2803      H2806   1.408       .  S
S2804      H2805   1.407       .  S
C2809      C2810   1.402       .  A
C2809      C2814   1.412       .  A
C2810      C2811   1.395       .  A
C2810      H2819   1.081       .  S
C2811      C2812   1.415       .  A
C2811      S2815   1.804       .  S
C2812      C2813   1.403       .  A
C2813      C2814   1.396       .  A
C2813      H2820   1.084       .  S
C2814      S2816   1.798       .  S
S2815      H2818   1.407       .  S
S2816      H2817   1.408       .  S
C2821      C2822   1.402       .  A
C2821      C2826   1.410       .  A
C2822      C2823   1.399       .  A
C2822      H2831   1.084       .  S
C2823      C2824   1.412       .  A
C2823      S2827   1.806       .  S
C2824      C2825   1.401       .  A
C2825      C2826   1.397       .  A
C2825      H2832   1.084       .  S
C2826      S2828   1.802       .  S
S2827      H2830   1.407       .  S
S2828      H2829   1.407       .  S
C2833      C2834   1.402       .  A
C2833      C2838   1.414       .  A
C2834      C2835   1.399       .  A
C2834      H2843   1.084       .  S
C2835      C2836   1.416       .  A
C2835      S2839   1.805       .  S
C2836      C2837   1.402       .  A
C2837      C2838   1.396       .  A
C2837      H2844   1.084       .  S
C2838      S2840   1.803       .  S
S2839      H2842   1.407       .  S
S2840      H2841   1.407       .  S
C2845      C2846   1.402       .  A
C2845      C2850   1.412       .  A
C2846      C2847   1.400       .  A
C2846      H2855   1.084       .  S
C2847      C2848   1.413       .  A
C2847      S2851   1.806       .  S
C2848      C2849   1.402       .  A
C2849      C2850   1.399       .  A
C2849      H2856   1.084       .  S
C2850      S2852   1.801       .  S
S2851      H2854   1.405       .  S
S2852      H2853   1.406       .  S
C2857      C2858   1.404       .  A
C2857      C2862   1.412       .  A
C2858      C2859   1.400       .  A
C2858      H2867   1.084       .  S
C2859      C2860   1.413       .  A
C2859      S2863   1.805       .  S
C2860      C2861   1.402       .  A
C2861      C2862   1.395       .  A
C2861      H2868   1.084       .  S
C2862      S2864   1.806       .  S
S2863      H2866   1.407       .  S
S2864      H2865   1.406       .  S
C2869      C2870   1.403       .  A
C2869      C2874   1.416       .  A
C2870      C2871   1.393       .  A
C2870      H2879   1.084       .  S
C2871      C2872   1.413       .  A
C2871      S2875   1.804       .  S
C2872      C2873   1.404       .  A
C2873      C2874   1.397       .  A
C2873      H2880   1.084       .  S
C2874      S2876   1.806       .  S
S2875      H2878   1.407       .  S
S2876      H2877   1.407       .  S
C2881      C2886   1.412       .  A
C2882      C2883   1.401       .  A
C2882      H2891   1.084       .  S
C2883      S2887   1.806       .  S
C2884      C2885   1.400       .  A
C2885      C2886   1.394       .  A
C2885      H2892   1.084       .  S
C2886      S2888   1.799       .  S
S2887      H2890   1.406       .  S
S2888      H2889   1.407       .  S
C2893      C2898   1.415       .  A
C2894      C2895   1.395       .  A
C2894      H2903   1.084       .  S
C2895      S2899   1.799       .  S
C2896      C2897   1.403       .  A
C2897      C2898   1.399       .  A
C2897      H2904   1.084       .  S
C2898      S2900   1.805       .  S
S2899      H2902   1.408       .  S
S2900      H2901   1.407       .  S
C2905      C2910   1.416       .  A
C2906      C2907   1.396       .  A
C2906      H2915   1.084       .  S
C2907      S2911   1.792       .  S
C2908      C2909   1.405       .  A
C2909      C2910   1.402       .  A
C2909      H2916   1.081       .  S
C2910      S2912   1.803       .  S
S2911      H2914   1.408       .  S
S2912      H2913   1.408       .  S
C2917      C2918   1.404       .  A
C2918      C2919   1.401       .  A
C2918      H2927   1.084       .  S
C2919      C2920   1.415       .  A
C2919      S2923   1.801       .  S
C2921      C2922   1.398       .  A
C2921      H2928   1.084       .  S
C2922      S2924   1.805       .  S
S2923      H2926   1.407       .  S
S2924      H2925   1.407       .  S
C2929      C3938   1.405   1_545  A
C2929      C2934   1.416       .  A
C2930      C3937   1.405       .  A
C2930      C2931   1.398       .  A
C2930      H2939   1.084       .  S
C2931      C3940   1.416       .  A
C2931      S2935   1.805       .  S
C2932      C3680   1.477       .  S
C2932      C3939   1.416       .  A
C2932      C2933   1.402   1_565  A
C2933      C2934   1.396       .  A
C2933      H2940   1.084       .  S
C2934      S2936   1.804       .  S
S2935      H2938   1.407       .  S
S2936      H2937   1.407       .  S
C2941      C2942   1.403   1_565  A
C2941      C3954   1.413       .  A
C2942      C2943   1.398       .  A
C2942      H2951   1.084       .  S
C2943      C2944   1.415       .  A
C2943      S2947   1.806       .  S
C2944      C3679   1.472       .  S
C2944      C3953   1.402   1_545  A
C2945      C3952   1.402       .  A
C2945      C2946   1.396       .  A
C2945      H2952   1.084       .  S
C2946      C3949   1.413       .  A
C2946      S2948   1.805       .  S
S2947      H2950   1.406       .  S
S2948      H2949   1.408       .  S
C2953      C3649   1.467       .  S
C2953      C3962   1.402   1_545  A
C2953      C2958   1.412       .  A
C2954      C3961   1.402       .  A
C2954      C2955   1.396       .  A
C2954      H2963   1.084       .  S
C2955      C3964   1.411       .  A
C2955      S2959   1.801       .  S
C2956      C3963   1.411       .  A
C2956      C2957   1.401   1_565  A
C2957      C2958   1.398       .  A
C2957      H2964   1.084       .  S
C2958      S2960   1.805       .  S
S2959      H2962   1.404       .  S
S2960      H2961   1.407       .  S
C2965      C2966   1.404   1_565  A
C2965      C3978   1.414       .  A
C2966      C2967   1.396       .  A
C2966      H2975   1.084       .  S
C2967      C2968   1.415   1_545  A
C2967      S2971   1.805       .  S
C2968      C3648   1.472       .  S
C2968      C3977   1.402       .  A
C2969      C3976   1.402       .  A
C2969      C2970   1.396       .  A
C2969      H2976   1.084       .  S
C2970      C3973   1.414       .  A
C2970      S2972   1.804       .  S
S2971      H2974   1.407       .  S
S2972      H2973   1.407       .  S
C2977      C2978   1.407       .  A
C2978      C2979   1.401       .  A
C2978      H2987   1.082       .  S
C2979      C2980   1.418       .  A
C2979      S2983   1.804       .  S
C2981      C2982   1.400       .  A
C2981      H2988   1.081       .  S
C2982      S2984   1.804       .  S
S2983      H2986   1.408       .  S
S2984      H2985   1.408       .  S
C2989      C2994   1.416       .  A
C2990      C2991   1.402       .  A
C2990      H2999   1.076       .  S
C2991      S2995   1.812       .  S
C2992      C2993   1.404       .  A
C2993      C2994   1.396       .  A
C2993      H3000   1.080       .  S
C2994      S2996   1.803       .  S
S2995      H2998   1.405       .  S
S2996      H2997   1.408       .  S
C3001      C3002   1.404       .  A
C3002      C3003   1.396       .  A
C3002      H3011   1.082       .  S
C3003      C3004   1.416       .  A
C3003      S3007   1.806       .  S
C3005      C3006   1.399       .  A
C3005      H3012   1.084       .  S
C3006      S3008   1.804       .  S
S3007      H3010   1.405       .  S
S3008      H3009   1.408       .  S
C3013      C3018   1.420       .  A
C3014      C3015   1.400       .  A
C3014      H3023   1.083       .  S
C3015      S3019   1.804       .  S
C3016      C3017   1.407       .  A
C3017      C3018   1.398       .  A
C3017      H3024   1.083       .  S
C3018      S3020   1.803       .  S
S3019      H3022   1.408       .  S
S3020      H3021   1.407       .  S
O3025      C3036   1.288       .  A
O3025     Eu3061   2.453       .  S
O3026      C3037   1.290       .  A
O3026     Eu3060   2.462       .  S
O3027      C3038   1.293       .  A
O3027     Eu3033   2.470       .  S
O3028      C3039   1.292       .  A
O3029      C3039   1.291       .  A
O3029     Eu3063   2.454   1_556  S
O3030      C3038   1.291       .  A
O3030     Eu3062   2.453       .  S
O3031      C3037   1.293       .  A
O3031     Eu3537   2.467       .  S
O3032      C3036   1.292       .  A
O3032     Eu3033   2.458       .  S
Eu3033     O3535   2.467   1_554  S
Eu3033     O3035   2.349       .  S
Eu3033     O3545   2.352   1_554  S
O3034     Eu3567   2.355       .  S
O3035     Eu3061   2.345       .  S
O3035     Eu3062   2.352       .  S
C3036      C3520   1.495       .  S
C3037      C3481   1.498       .  S
C3038      C3424   1.481       .  S
C3039      C3400   1.474       .  S
H3040      O3041   0.966       .  S
O3041     Eu3537   2.353       .  S
O3041     Eu3566   2.358       .  S
O3041     Eu3060   2.352       .  S
H3042      O3043   0.966       .  S
O3043     Eu3063   2.356       .  S
O3044      C3067   1.290       .  A
O3045      C3068   1.287       .  A
O3046      C3069   1.291       .  A
O3046     Eu3566   2.453       .  S
O3047      C3070   1.290       .  A
O3047     Eu3567   2.450       .  S
O3048      C3071   1.290       .  A
O3048     Eu3063   2.450       .  S
O3049      C3072   1.291       .  A
O3049     Eu3062   2.456       .  S
O3050      C3073   1.289       .  A
O3050     Eu3064   2.454   1_556  S
O3051      C3074   1.287       .  A
O3052      C3073   1.293       .  A
O3053      C3074   1.294       .  A
O3054      C3069   1.289       .  A
O3054     Eu3060   2.441       .  S
O3055      C3072   1.288       .  A
O3055     Eu3061   2.443       .  S
O3056      C3071   1.289       .  A
O3057      C3070   1.289       .  A
O3058      C3067   1.291       .  A
O3058     Eu3568   2.455       .  S
O3059      C3068   1.292       .  A
O3059     Eu3064   2.462       .  S
Eu3062     O3550   2.452   1_554  S
Eu3062     O3545   2.357   1_554  S
Eu3063     O3551   2.453   1_554  S
Eu3063     O3538   2.355   1_554  S
Eu3064     O3562   2.453   1_554  S
Eu3064     O3076   2.346       .  S
Eu3064     O3570   2.345   1_554  S
O3066     Eu3568   2.345       .  S
C3067      C3493   1.492       .  S
C3068      C3508   1.479       .  S
C3069      C3445   1.473       .  S
C3070      C3433   1.478       .  S
C3071      C3469   1.474       .  S
C3072      C3460   1.467       .  S
C3073      C3412   1.492       .  S
C3074      C3388   1.472       .  S
H3075      O3076   0.965       .  S
H3077      O3078   0.966       .  S
O3079      C3090   1.289       .  A
O3079     Eu3115   2.457       .  S
O3080      C3091   1.289       .  A
O3080     Eu3114   2.454       .  S
O3081      C3092   1.291       .  A
O3081     Eu3087   2.454       .  S
O3082      C3093   1.292       .  A
O3083      C3093   1.293       .  A
O3083     Eu3117   2.468       .  S
O3084      C3092   1.290       .  A
O3084     Eu3116   2.448       .  S
O3085      C3091   1.294       .  A
O3085     Eu3087   2.473       .  S
O3086      C3090   1.293       .  A
O3086     Eu3087   2.463       .  S
Eu3087     O3089   2.356       .  S
Eu3087     O3095   2.356       .  S
O3088     Eu3117   2.351       .  S
O3089     Eu3115   2.347       .  S
O3089     Eu3116   2.350       .  S
C3090      C3517   1.497       .  S
C3091      C3484   1.497       .  S
C3092      C3313   1.479       .  S
C3093      C3289   1.483       .  S
H3094      O3095   0.965       .  S
O3095     Eu3116   2.361       .  S
O3095     Eu3114   2.344       .  S
H3096      O3097   0.965       .  S
O3097     Eu3117   2.351       .  S
O3098      C3121   1.288       .  A
O3098     Eu3114   2.448       .  S
O3099      C3122   1.290       .  A
O3099     Eu3115   2.455       .  S
O3100      C3123   1.289       .  A
O3100     Eu3116   2.453       .  S
O3101      C3124   1.290       .  A
O3101     Eu3117   2.448       .  S
O3102      C3125   1.291       .  A
O3102     Eu3117   2.457       .  S
O3103      C3126   1.292       .  A
O3103     Eu3116   2.466       .  S
O3104      C3127   1.289       .  A
O3104     Eu3118   2.449       .  S
O3105      C3128   1.290       .  A
O3106      C3127   1.291       .  A
O3106     Eu3116   2.461       .  S
O3107      C3128   1.293       .  A
O3107     Eu3117   2.465       .  S
O3108      C3123   1.289       .  A
O3108     Eu3114   2.449       .  S
O3109      C3126   1.289       .  A
O3109     Eu3115   2.452       .  S
O3110      C3125   1.288       .  A
O3111      C3124   1.287       .  A
O3112      C3121   1.291       .  A
O3112     Eu3118   2.454       .  S
O3113      C3122   1.289       .  A
O3113     Eu3118   2.445       .  S
Eu3114     O3120   2.342       .  S
Eu3115     O3130   2.351       .  S
Eu3116     O3130   2.355       .  S
Eu3116     O3120   2.345       .  S
Eu3117     O3119   2.349       .  S
Eu3117     O3132   2.356       .  S
Eu3118     O3130   2.357       .  S
Eu3118     O3120   2.343       .  S
C3121      C3496   1.489       .  S
C3122      C3505   1.481       .  S
C3123      C3361   1.468       .  S
C3124      C3373   1.471       .  S
C3125      C3337   1.473       .  S
C3126      C3349   1.473       .  S
C3127      C3325   1.468       .  S
C3128      C3301   1.485       .  S
H3129      O3130   0.966       .  S
H3131      O3132   0.966       .  S
O3133      C3144   1.292   1_545  A
O3133     Eu3169   2.457       .  S
O3134      C3145   1.290       .  A
O3134     Eu3168   2.455       .  S
O3135      C3146   1.292       .  A
O3135     Eu3141   2.464       .  S
O3136      C3147   1.292       .  A
O3137      C3147   1.292       .  A
O3137     Eu3171   2.464       .  S
O3138      C3146   1.293       .  A
O3138     Eu3170   2.468       .  S
O3139      C3145   1.288   1_565  A
O3139     Eu3141   2.442       .  S
O3140      C3144   1.288       .  A
O3140     Eu3141   2.437       .  S
Eu3141     O3143   2.346       .  S
Eu3141     O3149   2.349       .  S
O3142     Eu3171   2.349       .  S
O3143     Eu3169   2.355   1_565  S
O3143     Eu3170   2.350       .  S
C3146      C3253   1.493       .  S
C3147      C3241   1.485       .  S
H3148      O3149   0.966       .  S
O3149     Eu3170   2.354       .  S
O3149     Eu3168   2.356   1_565  S
H3150      O3151   0.966       .  S
O3151     Eu3171   2.346       .  S
O3152      C3175   1.292       .  A
O3152     Eu3168   2.461       .  S
O3153      C3176   1.292       .  A
O3153     Eu3169   2.458   1_565  S
O3154      C3177   1.290       .  A
O3154     Eu3170   2.454       .  S
O3155      C3178   1.288       .  A
O3155     Eu3171   2.444       .  S
O3156      C3179   1.288       .  A
O3156     Eu3171   2.443       .  S
O3157      C3180   1.291       .  A
O3157     Eu3170   2.459       .  S
O3158      C3181   1.292       .  A
O3158     Eu3172   2.465   1_565  S
O3159      C3182   1.292       .  A
O3160      C3181   1.292       .  A
O3160     Eu3170   2.465       .  S
O3161      C3182   1.290       .  A
O3161     Eu3171   2.450       .  S
O3162      C3177   1.290       .  A
O3162     Eu3168   2.447   1_565  S
O3163      C3180   1.290       .  A
O3163     Eu3169   2.447   1_565  S
O3164      C3179   1.295       .  A
O3165      C3178   1.291       .  A
O3166      C3175   1.287       .  A
O3166     Eu3172   2.439       .  S
O3167      C3176   1.288       .  A
O3167     Eu3172   2.438   1_565  S
Eu3168     O3174   2.354   1_545  S
Eu3169     O3184   2.357   1_545  S
Eu3170     O3184   2.349       .  S
Eu3170     O3174   2.353       .  S
Eu3171     O3173   2.351       .  S
Eu3171     O3186   2.350       .  S
Eu3172     O3184   2.349   1_545  S
Eu3172     O3174   2.348   1_545  S
C3177      C3328   1.466       .  S
C3178      C3316   1.478       .  S
C3179      C3292   1.482       .  S
C3180      C3304   1.480       .  S
C3181      C3265   1.486       .  S
C3182      C3277   1.477       .  S
H3183      O3184   0.966       .  S
H3185      O3186   0.965       .  S
O3187      C3198   1.288       .  A
O3187     Eu3223   2.442       .  S
O3188      C3199   1.289       .  A
O3188     Eu3222   2.448       .  S
O3189      C3200   1.291       .  A
O3189     Eu3699   2.456   1_554  S
O3190      C3201   1.290       .  A
O3190     Eu3195   2.454       .  S
O3191      C3201   1.290       .  A
O3191     Eu3225   2.454       .  S
O3192      C3200   1.290       .  A
O3192     Eu3224   2.453       .  S
O3193      C3199   1.293       .  A
O3193     Eu3195   2.462       .  S
O3194      C3198   1.293       .  A
O3194     Eu3195   2.471       .  S
Eu3195     O3693   2.457       .  S
Eu3195     O3205   2.355       .  S
Eu3195     O3701   2.348       .  S
Eu3195     O3196   2.355       .  S
Eu3195     O3707   2.350       .  S
O3196     Eu3225   2.348       .  S
O3196     Eu3222   2.355       .  S
O3197     Eu3699   2.348   1_554  S
O3197     Eu3727   2.347   1_554  S
O3197     Eu3224   2.352       .  S
C3198      C3925   1.480       .  S
C3199      C3913   1.482       .  S
C3200      C3352   1.470       .  S
C3201      C3364   1.469       .  S
H3202      O3203   0.967       .  S
O3203     Eu3699   2.350   1_554  S
O3203     Eu3224   2.344       .  S
O3203     Eu3726   2.351       .  S
H3204      O3205   0.966       .  S
O3205     Eu3223   2.355       .  S
O3205     Eu3225   2.358       .  S
O3206      C3229   1.292       .  A
O3206     Eu3222   2.465       .  S
O3207      C3230   1.287       .  A
O3207     Eu3223   2.437       .  S
O3208      C3231   1.292       .  A
O3208     Eu3224   2.469       .  S
O3209      C3232   1.291       .  A
O3209     Eu3225   2.458       .  S
O3210      C3233   1.292       .  A
O3210     Eu3225   2.463       .  S
O3211      C3234   1.292       .  A
O3211     Eu3224   2.461       .  S
O3212      C3235   1.291       .  A
O3212     Eu3730   2.453       .  S
O3213      C3236   1.289       .  A
O3213     Eu3226   2.446       .  S
O3214      C3235   1.289       .  A
O3214     Eu3224   2.449       .  S
O3215      C3236   1.290       .  A
O3215     Eu3225   2.449       .  S
O3216      C3231   1.293       .  A
O3216     Eu3726   2.464       .  S
O3217      C3234   1.292       .  A
O3217     Eu3727   2.462   1_554  S
O3218      C3233   1.292       .  A
O3218     Eu3223   2.463       .  S
O3219      C3232   1.292       .  A
O3219     Eu3222   2.464       .  S
O3220      C3229   1.290       .  A
O3220     Eu3226   2.452       .  S
O3221      C3230   1.291       .  A
O3221     Eu3226   2.460       .  S
Eu3222     O3720   2.463       .  S
Eu3222     O3707   2.352       .  S
Eu3222     O3240   2.350       .  S
Eu3222     O3732   2.350       .  S
Eu3223     O3721   2.462       .  S
Eu3223     O3701   2.347       .  S
Eu3223     O3227   2.346       .  S
Eu3223     O3742   2.355       .  S
Eu3224     O3238   2.355       .  S
Eu3224     O3228   2.354       .  S
Eu3225     O3227   2.350       .  S
Eu3225     O3240   2.353       .  S
Eu3226     O3716   2.456       .  S
Eu3226     O3227   2.348       .  S
Eu3226     O3742   2.350       .  S
Eu3226     O3240   2.355       .  S
Eu3226     O3732   2.354       .  S
O3228     Eu3726   2.350       .  S
O3228     Eu3730   2.354       .  S
C3229      C3889   1.477       .  S
C3230      C3901   1.470       .  S
C3231      C3256   1.495       .  S
C3232      C3268   1.485       .  S
C3233      C3280   1.480       .  S
C3234      C3244   1.484       .  S
C3235      C3340   1.475       .  S
C3236      C3376   1.471       .  S
H3237      O3238   0.966       .  S
O3238     Eu3727   2.355   1_554  S
O3238     Eu3730   2.350       .  S
H3239      O3240   0.966       .  S
C3241      C3242   1.406       .  A
C3241      C3246   1.416       .  A
C3242      C3243   1.401       .  A
C3242      H3251   1.084       .  S
C3243      C3244   1.416       .  A
C3243      S3247   1.804       .  S
C3244      C3245   1.405       .  A
C3245      C3246   1.400       .  A
C3245      H3252   1.084       .  S
C3246      S3248   1.804       .  S
S3247      H3250   1.407       .  S
S3248      H3249   1.407       .  S
C3253      C3254   1.407       .  A
C3253      C3258   1.417       .  A
C3254      C3255   1.404       .  A
C3254      H3263   1.084       .  S
C3255      C3256   1.419       .  A
C3255      S3259   1.803       .  S
C3256      C3257   1.406       .  A
C3257      C3258   1.399       .  A
C3257      H3264   1.082       .  S
C3258      S3260   1.804       .  S
S3259      H3262   1.406       .  S
S3260      H3261   1.408       .  S
C3265      C3266   1.405       .  A
C3265      C3270   1.416       .  A
C3266      C3267   1.400       .  A
C3266      H3275   1.084       .  S
C3267      C3268   1.416       .  A
C3267      S3271   1.805       .  S
C3268      C3269   1.405       .  A
C3269      C3270   1.402       .  A
C3269      H3276   1.084       .  S
C3270      S3272   1.804       .  S
S3271      H3274   1.407       .  S
S3272      H3273   1.406       .  S
C3277      C3278   1.403       .  A
C3277      C3282   1.415       .  A
C3278      C3279   1.400       .  A
C3278      H3287   1.084       .  S
C3279      C3280   1.415       .  A
C3279      S3283   1.805       .  S
C3280      C3281   1.404       .  A
C3281      C3282   1.401       .  A
C3281      H3288   1.084       .  S
C3282      S3284   1.806       .  S
S3283      H3286   1.406       .  S
S3284      H3285   1.407       .  S
C3289      C3290   1.403       .  A
C3289      C3294   1.414       .  A
C3290      C3291   1.402       .  A
C3290      H3299   1.084       .  S
C3291      C3292   1.418       .  A
C3291      S3295   1.805       .  S
C3292      C3293   1.403       .  A
C3293      C3294   1.401       .  A
C3293      H3300   1.084       .  S
C3294      S3296   1.801       .  S
S3295      H3298   1.406       .  S
S3296      H3297   1.407       .  S
C3301      C3302   1.405       .  A
C3301      C3306   1.417       .  A
C3302      C3303   1.399       .  A
C3302      H3311   1.084       .  S
C3303      C3304   1.414       .  A
C3303      S3307   1.804       .  S
C3304      C3305   1.404       .  A
C3305      C3306   1.397       .  A
C3305      H3312   1.084       .  S
C3306      S3308   1.799       .  S
S3307      H3310   1.407       .  S
S3308      H3309   1.407       .  S
C3313      C3314   1.402       .  A
C3313      C3318   1.413       .  A
C3314      C3315   1.396       .  A
C3314      H3323   1.082       .  S
C3315      C3316   1.416       .  A
C3315      S3319   1.804       .  S
C3316      C3317   1.403       .  A
C3317      C3318   1.396       .  A
C3317      H3324   1.084       .  S
C3318      S3320   1.798       .  S
S3319      H3322   1.408       .  S
S3320      H3321   1.409       .  S
C3325      C3326   1.402       .  A
C3325      C3330   1.410       .  A
C3326      C3327   1.399       .  A
C3326      H3335   1.084       .  S
C3327      C3328   1.413       .  A
C3327      S3331   1.806       .  S
C3328      C3329   1.401       .  A
C3329      C3330   1.396       .  A
C3329      H3336   1.084       .  S
C3330      S3332   1.802       .  S
S3331      H3334   1.406       .  S
S3332      H3333   1.407       .  S
C3337      C3338   1.402       .  A
C3337      C3342   1.414       .  A
C3338      C3339   1.399       .  A
C3338      H3347   1.084       .  S
C3339      C3340   1.416       .  A
C3339      S3343   1.805       .  S
C3340      C3341   1.402       .  A
C3341      C3342   1.395       .  A
C3341      H3348   1.084       .  S
C3342      S3344   1.803       .  S
S3343      H3346   1.407       .  S
S3344      H3345   1.407       .  S
C3349      C3350   1.403       .  A
C3349      C3354   1.412       .  A
C3350      C3351   1.400       .  A
C3350      H3359   1.084       .  S
C3351      C3352   1.413       .  A
C3351      S3355   1.805       .  S
C3352      C3353   1.402       .  A
C3353      C3354   1.398       .  A
C3353      H3360   1.084       .  S
C3354      S3356   1.801       .  S
S3355      H3358   1.405       .  S
S3356      H3357   1.406       .  S
C3361      C3362   1.404       .  A
C3361      C3366   1.411       .  A
C3362      C3363   1.400       .  A
C3362      H3371   1.084       .  S
C3363      C3364   1.413       .  A
C3363      S3367   1.805       .  S
C3364      C3365   1.402       .  A
C3365      C3366   1.396       .  A
C3365      H3372   1.084       .  S
C3366      S3368   1.806       .  S
S3367      H3370   1.407       .  S
S3368      H3369   1.407       .  S
C3373      C3374   1.403       .  A
C3373      C3378   1.415       .  A
C3374      C3375   1.393       .  A
C3374      H3383   1.084       .  S
C3375      C3376   1.413       .  A
C3375      S3379   1.804       .  S
C3376      C3377   1.404       .  A
C3377      C3378   1.397       .  A
C3377      H3384   1.084       .  S
C3378      S3380   1.806       .  S
S3379      H3382   1.406       .  S
S3380      H3381   1.407       .  S
C3385      C3733   1.475       .  S
C3385      C3890   1.405   1_554  A
C3385      C3390   1.411       .  A
C3386      C3889   1.405       .  A
C3386      C3387   1.401       .  A
C3386      H3395   1.084       .  S
C3387      C3892   1.416       .  A
C3387      S3391   1.806       .  S
C3388      C3891   1.416       .  A
C3388      C3389   1.400   1_556  A
C3389      C3390   1.395       .  A
C3389      H3396   1.084       .  S
C3390      S3392   1.801       .  S
S3391      H3394   1.406       .  S
S3392      H3393   1.407       .  S
C3397      C3734   1.469       .  S
C3397      C3902   1.400       .  A
C3397      C3402   1.415   1_556  A
C3398      C3901   1.400       .  A
C3398      C3399   1.395       .  A
C3398      H3407   1.084       .  S
C3399      C3904   1.412       .  A
C3399      S3403   1.799       .  S
C3400      C3903   1.412       .  A
C3400      C3401   1.403   1_556  A
C3401      C3402   1.398       .  A
C3401      H3408   1.084       .  S
C3402      S3404   1.805       .  S
S3403      H3406   1.408       .  S
S3404      H3405   1.407       .  S
C3409      C3703   1.483       .  S
C3409      C3914   1.401   1_554  A
C3409      C3414   1.416       .  A
C3410      C3913   1.400       .  A
C3410      C3411   1.396       .  A
C3410      H3419   1.084       .  S
C3411      C3916   1.417       .  A
C3411      S3415   1.792       .  S
C3412      C3915   1.418       .  A
C3412      C3413   1.404   1_556  A
C3413      C3414   1.401       .  A
C3413      H3420   1.081       .  S
C3414      S3416   1.803       .  S
S3415      H3418   1.408       .  S
S3416      H3417   1.409       .  S
C3421      C3702   1.479       .  S
C3421      C3422   1.404   1_556  A
C3421      C3930   1.415       .  A
C3422      C3423   1.401       .  A
C3422      H3431   1.084       .  S
C3423      C3424   1.414       .  A
C3423      S3427   1.802       .  S
C3424      C3929   1.404   1_554  A
C3425      C3928   1.404       .  A
C3425      C3426   1.398       .  A
C3425      H3432   1.084       .  S
C3426      C3925   1.416       .  A
C3426      S3428   1.805       .  S
S3427      H3430   1.407       .  S
S3428      H3429   1.407       .  S
C3433      C3438   1.416       .  A
C3434      C3435   1.397       .  A
C3434      H3443   1.084       .  S
C3435      S3439   1.805       .  S
C3436      C3437   1.402       .  A
C3437      C3438   1.396       .  A
C3437      H3444   1.084       .  S
C3438      S3440   1.804       .  S
S3439      H3442   1.407       .  S
S3440      H3441   1.407       .  S
C3445      C3446   1.403       .  A
C3446      C3447   1.397       .  A
C3446      H3455   1.084       .  S
C3447      C3448   1.416       .  A
C3447      S3451   1.806       .  S
C3449      C3450   1.395       .  A
C3449      H3456   1.084       .  S
C3450      S3452   1.805       .  S
S3451      H3454   1.406       .  S
S3452      H3453   1.408       .  S
C3457      C3462   1.412       .  A
C3458      C3459   1.396       .  A
C3458      H3467   1.084       .  S
C3459      S3463   1.801       .  S
C3460      C3461   1.402       .  A
C3461      C3462   1.398       .  A
C3461      H3468   1.084       .  S
C3462      S3464   1.805       .  S
S3463      H3466   1.405       .  S
S3464      H3465   1.407       .  S
C3469      C3470   1.404       .  A
C3470      C3471   1.396       .  A
C3470      H3479   1.084       .  S
C3471      C3472   1.415       .  A
C3471      S3475   1.805       .  S
C3473      C3474   1.396       .  A
C3473      H3480   1.084       .  S
C3474      S3476   1.804       .  S
S3475      H3478   1.407       .  S
S3476      H3477   1.407       .  S
C3481      C3482   1.408       .  A
C3482      C3483   1.402       .  A
C3482      H3491   1.082       .  S
C3483      C3484   1.419       .  A
C3483      S3487   1.804       .  S
C3485      C3486   1.400       .  A
C3485      H3492   1.080       .  S
C3486      S3488   1.804       .  S
S3487      H3490   1.407       .  S
S3488      H3489   1.408       .  S
C3493      C3498   1.416       .  A
C3494      C3495   1.402       .  A
C3494      H3503   1.076       .  S
C3495      S3499   1.811       .  S
C3496      C3497   1.404       .  A
C3497      C3498   1.396       .  A
C3497      H3504   1.080       .  S
C3498      S3500   1.803       .  S
S3499      H3502   1.405       .  S
S3500      H3501   1.408       .  S
C3505      C3506   1.404       .  A
C3506      C3507   1.395       .  A
C3506      H3515   1.082       .  S
C3507      C3508   1.416       .  A
C3507      S3511   1.805       .  S
C3509      C3510   1.398       .  A
C3509      H3516   1.084       .  S
C3510      S3512   1.804       .  S
S3511      H3514   1.406       .  S
S3512      H3513   1.408       .  S
C3517      C3522   1.420       .  A
C3518      C3519   1.400       .  A
C3518      H3527   1.083       .  S
C3519      S3523   1.804       .  S
C3520      C3521   1.406       .  A
C3521      C3522   1.398       .  A
C3521      H3528   1.083       .  S
C3522      S3524   1.803       .  S
S3523      H3526   1.408       .  S
S3524      H3525   1.407       .  S
O3529      C3540   1.289       .  A
O3529     Eu3565   2.455       .  S
O3530      C3541   1.290       .  A
O3530     Eu3564   2.459       .  S
O3531      C3542   1.293       .  A
O3531     Eu3537   2.470       .  S
O3532      C3543   1.291       .  A
O3533      C3543   1.291       .  A
O3533     Eu3567   2.454       .  S
O3534      C3542   1.291       .  A
O3534     Eu3566   2.452       .  S
O3535      C3541   1.293       .  A
O3536      C3540   1.292       .  A
O3536     Eu3537   2.457       .  S
Eu3537     O3539   2.348       .  S
O3539     Eu3565   2.346       .  S
O3539     Eu3566   2.352       .  S
C3540      C4024   1.495       .  S
C3541      C3985   1.496       .  S
C3542      C3928   1.482       .  S
C3543      C3904   1.473       .  S
H3544      O3545   0.966       .  S
O3545     Eu3564   2.352       .  S
H3546      O3547   0.966       .  S
O3547     Eu3567   2.354       .  S
O3548      C3571   1.290       .  A
O3549      C3572   1.287       .  A
O3550      C3573   1.290       .  A
O3551      C3574   1.291       .  A
O3552      C3575   1.290       .  A
O3552     Eu3567   2.451       .  S
O3553      C3576   1.291       .  A
O3553     Eu3566   2.455       .  S
O3554      C3577   1.290       .  A
O3554     Eu3568   2.458       .  S
O3555      C3578   1.287       .  A
O3556      C3577   1.293       .  A
O3557      C3578   1.294       .  A
O3558      C3573   1.289       .  A
O3558     Eu3564   2.444       .  S
O3559      C3576   1.288       .  A
O3559     Eu3565   2.443       .  S
O3560      C3575   1.289       .  A
O3561      C3574   1.289       .  A
O3562      C3571   1.291       .  A
O3563      C3572   1.293       .  A
O3563     Eu3568   2.467       .  S
Eu3568     O3580   2.344       .  S
C3571      C3997   1.492       .  S
C3572      C4012   1.479       .  S
C3573      C3949   1.472       .  S
C3574      C3937   1.480       .  S
C3575      C3973   1.475       .  S
C3576      C3964   1.465       .  S
C3577      C3916   1.492       .  S
C3578      C3892   1.472       .  S
H3579      O3580   0.965       .  S
H3581      O3582   0.966       .  S
O3583      C3594   1.290       .  A
O3583     Eu3619   2.459       .  S
O3584      C3595   1.290       .  A
O3584     Eu3618   2.456       .  S
O3585      C3596   1.292       .  A
O3585     Eu3591   2.457       .  S
O3586      C3597   1.293       .  A
O3587      C3597   1.293       .  A
O3587     Eu3621   2.469       .  S
O3588      C3596   1.290       .  A
O3588     Eu3620   2.445       .  S
O3589      C3595   1.294       .  A
O3589     Eu3591   2.469       .  S
O3590      C3594   1.293       .  A
O3590     Eu3591   2.460       .  S
Eu3591     O3593   2.357       .  S
Eu3591     O3599   2.355       .  S
O3592     Eu3621   2.352       .  S
O3593     Eu3619   2.347       .  S
O3593     Eu3620   2.351       .  S
C3594      C4021   1.497       .  S
C3595      C3988   1.496       .  S
C3596      C3817   1.477       .  S
C3597      C3793   1.484       .  S
H3598      O3599   0.965       .  S
O3599     Eu3620   2.361       .  S
O3599     Eu3618   2.342       .  S
H3600      O3601   0.965       .  S
O3601     Eu3621   2.352       .  S
O3602      C3625   1.288       .  A
O3602     Eu3618   2.446       .  S
O3603      C3626   1.291       .  A
O3603     Eu3619   2.457       .  S
O3604      C3627   1.289       .  A
O3604     Eu3620   2.452       .  S
O3605      C3628   1.291       .  A
O3605     Eu3621   2.451       .  S
O3606      C3629   1.291       .  A
O3606     Eu3621   2.458       .  S
O3607      C3630   1.292       .  A
O3607     Eu3620   2.466       .  S
O3608      C3631   1.289       .  A
O3608     Eu3622   2.447       .  S
O3609      C3632   1.289       .  A
O3610      C3631   1.291       .  A
O3610     Eu3620   2.461       .  S
O3611      C3632   1.293       .  A
O3611     Eu3621   2.468       .  S
O3612      C3627   1.290       .  A
O3612     Eu3618   2.450       .  S
O3613      C3630   1.290       .  A
O3613     Eu3619   2.452       .  S
O3614      C3629   1.289       .  A
O3615      C3628   1.287       .  A
O3616      C3625   1.292       .  A
O3616     Eu3622   2.458       .  S
O3617      C3626   1.290       .  A
O3617     Eu3622   2.449       .  S
Eu3618     O3624   2.344       .  S
Eu3619     O3634   2.352       .  S
Eu3620     O3634   2.354       .  S
Eu3620     O3624   2.345       .  S
Eu3621     O3623   2.349       .  S
Eu3621     O3636   2.355       .  S
Eu3622     O3634   2.357       .  S
Eu3622     O3624   2.345       .  S
C3625      C4000   1.490       .  S
C3626      C4009   1.482       .  S
C3627      C3865   1.468       .  S
C3628      C3877   1.472       .  S
C3629      C3841   1.473       .  S
C3630      C3853   1.473       .  S
C3631      C3829   1.467       .  S
C3632      C3805   1.486       .  S
H3633      O3634   0.966       .  S
H3635      O3636   0.966       .  S
O3637      C3648   1.292   1_545  A
O3637     Eu3673   2.459       .  S
O3638      C3649   1.290       .  A
O3638     Eu3672   2.456       .  S
O3639      C3650   1.291       .  A
O3639     Eu3645   2.464       .  S
O3640      C3651   1.292       .  A
O3641      C3651   1.292       .  A
O3641     Eu3675   2.464       .  S
O3642      C3650   1.293       .  A
O3642     Eu3674   2.467       .  S
O3643      C3649   1.288   1_565  A
O3643     Eu3645   2.443       .  S
O3644      C3648   1.287       .  A
O3644     Eu3645   2.436       .  S
Eu3645     O3647   2.346       .  S
Eu3645     O3653   2.348       .  S
O3646     Eu3675   2.349       .  S
O3647     Eu3673   2.355   1_565  S
O3647     Eu3674   2.349       .  S
C3650      C3757   1.493       .  S
C3651      C3745   1.484       .  S
H3652      O3653   0.966       .  S
O3653     Eu3674   2.355       .  S
O3653     Eu3672   2.356   1_565  S
H3654      O3655   0.966       .  S
O3655     Eu3675   2.346       .  S
O3656      C3679   1.292       .  A
O3656     Eu3672   2.461       .  S
O3657      C3680   1.293       .  A
O3657     Eu3673   2.462   1_565  S
O3658      C3681   1.290       .  A
O3658     Eu3674   2.454       .  S
O3659      C3682   1.288       .  A
O3659     Eu3675   2.443       .  S
O3660      C3683   1.288       .  A
O3660     Eu3675   2.444       .  S
O3661      C3684   1.292       .  A
O3661     Eu3674   2.462       .  S
O3662      C3685   1.292       .  A
O3662     Eu3676   2.465   1_565  S
O3663      C3686   1.292       .  A
O3664      C3685   1.293       .  A
O3664     Eu3674   2.466       .  S
O3665      C3686   1.290       .  A
O3665     Eu3675   2.451       .  S
O3666      C3681   1.289       .  A
O3666     Eu3672   2.447   1_565  S
O3667      C3684   1.290       .  A
O3667     Eu3673   2.446   1_565  S
O3668      C3683   1.295       .  A
O3669      C3682   1.291       .  A
O3670      C3679   1.288       .  A
O3670     Eu3676   2.441       .  S
O3671      C3680   1.288       .  A
O3671     Eu3676   2.438   1_565  S
Eu3672     O3678   2.354   1_545  S
Eu3673     O3688   2.358   1_545  S
Eu3674     O3688   2.349       .  S
Eu3674     O3678   2.353       .  S
Eu3675     O3677   2.350       .  S
Eu3675     O3690   2.351       .  S
Eu3676     O3688   2.350   1_545  S
Eu3676     O3678   2.348   1_545  S
C3681      C3832   1.465       .  S
C3682      C3820   1.477       .  S
C3683      C3796   1.482       .  S
C3684      C3808   1.482       .  S
C3685      C3769   1.487       .  S
C3686      C3781   1.478       .  S
H3687      O3688   0.966       .  S
H3689      O3690   0.965       .  S
O3691      C3702   1.288       .  A
O3691     Eu3727   2.443       .  S
O3692      C3703   1.290   1_556  A
O3692     Eu3726   2.451   1_556  S
O3693      C3704   1.291       .  A
O3694      C3705   1.290       .  A
O3694     Eu3699   2.454       .  S
O3695      C3705   1.289       .  A
O3695     Eu3729   2.450       .  S
O3696      C3704   1.290       .  A
O3696     Eu3728   2.453       .  S
O3697      C3703   1.293   1_556  A
O3697     Eu3699   2.459       .  S
O3698      C3702   1.293       .  A
O3698     Eu3699   2.471       .  S
Eu3699     O3709   2.354       .  S
Eu3699     O3700   2.355       .  S
O3700     Eu3729   2.348       .  S
O3700     Eu3726   2.355   1_556  S
O3701     Eu3728   2.351       .  S
C3704      C3856   1.471       .  S
C3705      C3868   1.468       .  S
H3706      O3707   0.967       .  S
O3707     Eu3728   2.346       .  S
H3708      O3709   0.967       .  S
O3709     Eu3727   2.356       .  S
O3709     Eu3729   2.358       .  S
O3710      C3733   1.293       .  A
O3710     Eu3726   2.467       .  S
O3711      C3734   1.287       .  A
O3711     Eu3727   2.437       .  S
O3712      C3735   1.292       .  A
O3712     Eu3728   2.468       .  S
O3713      C3736   1.291       .  A
O3713     Eu3729   2.459       .  S
O3714      C3737   1.292       .  A
O3714     Eu3729   2.463       .  S
O3715      C3738   1.292       .  A
O3715     Eu3728   2.461       .  S
O3716      C3739   1.291       .  A
O3717      C3740   1.289       .  A
O3717     Eu3730   2.444   1_556  S
O3718      C3739   1.290       .  A
O3718     Eu3728   2.451       .  S
O3719      C3740   1.289       .  A
O3719     Eu3729   2.447       .  S
O3720      C3735   1.293       .  A
O3721      C3738   1.292       .  A
O3722      C3737   1.292       .  A
O3722     Eu3727   2.462       .  S
O3723      C3736   1.292       .  A
O3723     Eu3726   2.463   1_556  S
O3724      C3733   1.289       .  A
O3724     Eu3730   2.449       .  S
O3725      C3734   1.291       .  A
O3725     Eu3730   2.457   1_556  S
Eu3726     O3744   2.350   1_554  S
Eu3727     O3731   2.345       .  S
Eu3728     O3742   2.355       .  S
Eu3728     O3732   2.354       .  S
Eu3729     O3731   2.349       .  S
Eu3729     O3744   2.352       .  S
Eu3730     O3731   2.346   1_554  S
Eu3730     O3744   2.354   1_554  S
C3735      C3760   1.496       .  S
C3736      C3772   1.485       .  S
C3737      C3784   1.480       .  S
C3738      C3748   1.484       .  S
C3739      C3844   1.476       .  S
C3740      C3880   1.471       .  S
H3741      O3742   0.966       .  S
H3743      O3744   0.966       .  S
C3745      C3746   1.406       .  A
C3745      C3750   1.415       .  A
C3746      C3747   1.401       .  A
C3746      H3755   1.084       .  S
C3747      C3748   1.416       .  A
C3747      S3751   1.804       .  S
C3748      C3749   1.405       .  A
C3749      C3750   1.400       .  A
C3749      H3756   1.084       .  S
C3750      S3752   1.804       .  S
S3751      H3754   1.407       .  S
S3752      H3753   1.408       .  S
C3757      C3758   1.407       .  A
C3757      C3762   1.417       .  A
C3758      C3759   1.404       .  A
C3758      H3767   1.084       .  S
C3759      C3760   1.419       .  A
C3759      S3763   1.803       .  S
C3760      C3761   1.406       .  A
C3761      C3762   1.399       .  A
C3761      H3768   1.081       .  S
C3762      S3764   1.804       .  S
S3763      H3766   1.407       .  S
S3764      H3765   1.408       .  S
C3769      C3770   1.406       .  A
C3769      C3774   1.417       .  A
C3770      C3771   1.401       .  A
C3770      H3779   1.084       .  S
C3771      C3772   1.416       .  A
C3771      S3775   1.805       .  S
C3772      C3773   1.405       .  A
C3773      C3774   1.402       .  A
C3773      H3780   1.084       .  S
C3774      S3776   1.804       .  S
S3775      H3778   1.407       .  S
S3776      H3777   1.407       .  S
C3781      C3782   1.404       .  A
C3781      C3786   1.415       .  A
C3782      C3783   1.400       .  A
C3782      H3791   1.084       .  S
C3783      C3784   1.415       .  A
C3783      S3787   1.805       .  S
C3784      C3785   1.404       .  A
C3785      C3786   1.400       .  A
C3785      H3792   1.084       .  S
C3786      S3788   1.806       .  S
S3787      H3790   1.407       .  S
S3788      H3789   1.407       .  S
C3793      C3794   1.404       .  A
C3793      C3798   1.415       .  A
C3794      C3795   1.402       .  A
C3794      H3803   1.084       .  S
C3795      C3796   1.418       .  A
C3795      S3799   1.805       .  S
C3796      C3797   1.402       .  A
C3797      C3798   1.400       .  A
C3797      H3804   1.084       .  S
C3798      S3800   1.801       .  S
S3799      H3802   1.406       .  S
S3800      H3801   1.407       .  S
C3805      C3806   1.406       .  A
C3805      C3810   1.417       .  A
C3806      C3807   1.399       .  A
C3806      H3815   1.084       .  S
C3807      C3808   1.414       .  A
C3807      S3811   1.804       .  S
C3808      C3809   1.404       .  A
C3809      C3810   1.398       .  A
C3809      H3816   1.084       .  S
C3810      S3812   1.799       .  S
S3811      H3814   1.408       .  S
S3812      H3813   1.407       .  S
C3817      C3818   1.402       .  A
C3817      C3822   1.412       .  A
C3818      C3819   1.395       .  A
C3818      H3827   1.081       .  S
C3819      C3820   1.415       .  A
C3819      S3823   1.804       .  S
C3820      C3821   1.403       .  A
C3821      C3822   1.396       .  A
C3821      H3828   1.084       .  S
C3822      S3824   1.798       .  S
S3823      H3826   1.407       .  S
S3824      H3825   1.408       .  S
C3829      C3830   1.402       .  A
C3829      C3834   1.410       .  A
C3830      C3831   1.399       .  A
C3830      H3839   1.084       .  S
C3831      C3832   1.412       .  A
C3831      S3835   1.806       .  S
C3832      C3833   1.401       .  A
C3833      C3834   1.397       .  A
C3833      H3840   1.084       .  S
C3834      S3836   1.801       .  S
S3835      H3838   1.407       .  S
S3836      H3837   1.407       .  S
C3841      C3842   1.402       .  A
C3841      C3846   1.414       .  A
C3842      C3843   1.399       .  A
C3842      H3851   1.084       .  S
C3843      C3844   1.416       .  A
C3843      S3847   1.805       .  S
C3844      C3845   1.402       .  A
C3845      C3846   1.396       .  A
C3845      H3852   1.084       .  S
C3846      S3848   1.803       .  S
S3847      H3850   1.407       .  S
S3848      H3849   1.407       .  S
C3853      C3854   1.402       .  A
C3853      C3858   1.412       .  A
C3854      C3855   1.400       .  A
C3854      H3863   1.084       .  S
C3855      C3856   1.413       .  A
C3855      S3859   1.806       .  S
C3856      C3857   1.402       .  A
C3857      C3858   1.399       .  A
C3857      H3864   1.084       .  S
C3858      S3860   1.801       .  S
S3859      H3862   1.405       .  S
S3860      H3861   1.406       .  S
C3865      C3866   1.404       .  A
C3865      C3870   1.412       .  A
C3866      C3867   1.400       .  A
C3866      H3875   1.084       .  S
C3867      C3868   1.413       .  A
C3867      S3871   1.805       .  S
C3868      C3869   1.402       .  A
C3869      C3870   1.395       .  A
C3869      H3876   1.084       .  S
C3870      S3872   1.806       .  S
S3871      H3874   1.407       .  S
S3872      H3873   1.406       .  S
C3877      C3878   1.403       .  A
C3877      C3882   1.416       .  A
C3878      C3879   1.393       .  A
C3878      H3887   1.084       .  S
C3879      C3880   1.413       .  A
C3879      S3883   1.804       .  S
C3880      C3881   1.404       .  A
C3881      C3882   1.397       .  A
C3881      H3888   1.084       .  S
C3882      S3884   1.806       .  S
S3883      H3886   1.406       .  S
S3884      H3885   1.407       .  S
C3889      C3894   1.412       .  A
C3890      C3891   1.401       .  A
C3890      H3899   1.084       .  S
C3891      S3895   1.806       .  S
C3892      C3893   1.400       .  A
C3893      C3894   1.394       .  A
C3893      H3900   1.084       .  S
C3894      S3896   1.799       .  S
S3895      H3898   1.406       .  S
S3896      H3897   1.407       .  S
C3901      C3906   1.415       .  A
C3902      C3903   1.395       .  A
C3902      H3911   1.084       .  S
C3903      S3907   1.799       .  S
C3904      C3905   1.403       .  A
C3905      C3906   1.399       .  A
C3905      H3912   1.084       .  S
C3906      S3908   1.805       .  S
S3907      H3910   1.408       .  S
S3908      H3909   1.407       .  S
C3913      C3918   1.416       .  A
C3914      C3915   1.396       .  A
C3914      H3923   1.084       .  S
C3915      S3919   1.792       .  S
C3916      C3917   1.405       .  A
C3917      C3918   1.402       .  A
C3917      H3924   1.081       .  S
C3918      S3920   1.803       .  S
S3919      H3922   1.408       .  S
S3920      H3921   1.408       .  S
C3925      C3926   1.405       .  A
C3926      C3927   1.402       .  A
C3926      H3935   1.084       .  S
C3927      C3928   1.415       .  A
C3927      S3931   1.801       .  S
C3929      C3930   1.398       .  A
C3929      H3936   1.084       .  S
C3930      S3932   1.805       .  S
S3931      H3934   1.407       .  S
S3932      H3933   1.407       .  S
C3937      C3942   1.416       .  A
C3938      C3939   1.398       .  A
C3938      H3947   1.084       .  S
C3939      S3943   1.805       .  S
C3940      C3941   1.402       .  A
C3941      C3942   1.396       .  A
C3941      H3948   1.084       .  S
C3942      S3944   1.804       .  S
S3943      H3946   1.407       .  S
S3944      H3945   1.407       .  S
C3949      C3950   1.403       .  A
C3950      C3951   1.398       .  A
C3950      H3959   1.084       .  S
C3951      C3952   1.415       .  A
C3951      S3955   1.806       .  S
C3953      C3954   1.396       .  A
C3953      H3960   1.084       .  S
C3954      S3956   1.805       .  S
S3955      H3958   1.406       .  S
S3956      H3957   1.408       .  S
C3961      C3966   1.412       .  A
C3962      C3963   1.396       .  A
C3962      H3971   1.084       .  S
C3963      S3967   1.801       .  S
C3964      C3965   1.401       .  A
C3965      C3966   1.398       .  A
C3965      H3972   1.084       .  S
C3966      S3968   1.805       .  S
S3967      H3970   1.404       .  S
S3968      H3969   1.407       .  S
C3973      C3974   1.404       .  A
C3974      C3975   1.396       .  A
C3974      H3983   1.084       .  S
C3975      C3976   1.415       .  A
C3975      S3979   1.805       .  S
C3977      C3978   1.396       .  A
C3977      H3984   1.084       .  S
C3978      S3980   1.804       .  S
S3979      H3982   1.407       .  S
S3980      H3981   1.407       .  S
C3985      C3986   1.407       .  A
C3986      C3987   1.401       .  A
C3986      H3995   1.082       .  S
C3987      C3988   1.418       .  A
C3987      S3991   1.804       .  S
C3989      C3990   1.400       .  A
C3989      H3996   1.080       .  S
C3990      S3992   1.804       .  S
S3991      H3994   1.408       .  S
S3992      H3993   1.408       .  S
C3997      C4002   1.416       .  A
C3998      C3999   1.402       .  A
C3998      H4007   1.076       .  S
C3999      S4003   1.812       .  S
C4000      C4001   1.404       .  A
C4001      C4002   1.396       .  A
C4001      H4008   1.080       .  S
C4002      S4004   1.803       .  S
S4003      H4006   1.405       .  S
S4004      H4005   1.408       .  S
C4009      C4010   1.404       .  A
C4010      C4011   1.396       .  A
C4010      H4019   1.082       .  S
C4011      C4012   1.416       .  A
C4011      S4015   1.806       .  S
C4013      C4014   1.399       .  A
C4013      H4020   1.084       .  S
C4014      S4016   1.804       .  S
S4015      H4018   1.405       .  S
S4016      H4017   1.408       .  S
C4021      C4026   1.420       .  A
C4022      C4023   1.400       .  A
C4022      H4031   1.083       .  S
C4023      S4027   1.804       .  S
C4024      C4025   1.407       .  A
C4025      C4026   1.398       .  A
C4025      H4032   1.083       .  S
C4026      S4028   1.803       .  S
S4027      H4030   1.408       .  S
S4028      H4029   1.407       .  S
