geometry optimzed in LAMMPS
_audit_creation_date              2020-11-30 
_audit_creation_method            'lammps2cif' 
_symmetry_space_group_name_H-M    'P1' 
_symmetry_Int_Tables_number       1 
_symmetry_cell_setting            triclinic 
loop_ 
_symmetry_equiv_pos_as_xyz 
  x,y,z 
_cell_length_a                    28.64125643 
_cell_length_b                    28.687213863460208 
_cell_length_c                    51.48427611470164 
_cell_angle_alpha                 90.00433888795321 
_cell_angle_beta                  89.9708458692086 
_cell_angle_gamma                 100.7385963375921 
loop_ 
_atom_site_label 
_atom_site_type_symbol 
_atom_site_fract_x 
_atom_site_fract_y 
_atom_site_fract_z 
_atom_site_charge 
Zn1        Zn  0.19348947  0.24689457  0.64118615     1.49700
Zn2        Zn  0.25765351  0.30613910  0.59701652     1.48600
Zn3        Zn  0.30581965  0.25202200  0.64115477     1.49100
Zn4        Zn  0.24166340  0.19264750  0.59706678     1.49500
O5          O  0.24965307  0.24942540  0.61906878    -1.80300
O6          O  0.15826673  0.29958078  0.63235644    -0.71000
O7          O  0.31801357  0.35200632  0.60597439    -0.70800
O8          O  0.28813478  0.24766070  0.67917649    -0.70300
O9          O  0.20295111  0.34055724  0.60164459    -0.71000
O10         O  0.21117887  0.25127531  0.67920468    -0.70600
O11         O  0.35112796  0.31408114  0.63661518    -0.71200
O12         O  0.29637159  0.15824525  0.60170085    -0.70600
O13         O  0.25881587  0.28881172  0.55904700    -0.71300
O14         O  0.34106948  0.19934878  0.63234198    -0.70700
O15         O  0.24051570  0.20986638  0.55908163    -0.71200
O16         O  0.18131012  0.14680324  0.60609059    -0.71100
O17         O  0.14816423  0.18482341  0.63669870    -0.70900
C18         C  0.16647385  0.33373641  0.61623240     0.80900
C19         C  0.35111546  0.35002290  0.62218502     0.81400
C20         C  0.24965907  0.24946043  0.69116365     0.80400
C21         C  0.33286240  0.16513430  0.61625838     0.80700
C22         C  0.24967212  0.24932231  0.54711562     0.81900
C23         C  0.14819628  0.14883196  0.62230553     0.80900
C24         C  0.46266228  0.46262985  0.62673432     0.33800
C25         C  0.03669390  0.03616860  0.62681854     0.33800
C26         C  0.45325901  0.00765768  0.61329483    -0.02400
C27         C  0.48058413  0.48032058  0.65366882    -0.03200
C28         C  0.00760585  0.45297419  0.61321700    -0.03100
C29         C  0.49177429  0.04593431  0.61335114    -0.02400
C30         C  0.01873382  0.01822060  0.65371334    -0.03200
C31         C  0.04613229  0.49125942  0.61324930    -0.03100
C32         C  0.47278630  0.08676136  0.61244377    -0.28500
N33         N  0.42497456  0.07458108  0.61101292     0.18000
C34         C  0.41253235  0.02685553  0.61233834    -0.28500
H35         H  0.37660372  0.00779570  0.61535293     0.20000
C36         C  0.03005962  0.02924164  0.67925136    -0.27400
N37         N  0.99972530  0.49896692  0.69446771     0.16800
C38         C  0.46932678  0.46893335  0.67917911    -0.27400
C39         C  0.08685872  0.47205029  0.61231599    -0.27700
N40         N  0.07442360  0.42433358  0.61091831     0.17300
H41         H  0.12276563  0.49108521  0.61541514     0.19900
C42         C  0.02660552  0.41215391  0.61227934    -0.27700
H43         H  0.00734870  0.37635097  0.61534629     0.19900
H44         H  0.44131819  0.44104560  0.68611976     0.19900
H45         H  0.49202709  0.12255367  0.61555596     0.20000
H46         H  0.05811998  0.05699650  0.68625964     0.19900
Zn47       Zn  0.00222543  0.05474575  0.82305326     1.49700
Zn48       Zn  0.05668126  0.50690898  0.86717705     1.49400
Zn49       Zn  0.44294477  0.49064086  0.86718891     1.49100
Zn50       Zn  0.99743844  0.44266681  0.82308825     1.49500
O51         O  0.99982467  0.49873471  0.84517039    -1.80300
O52         O  0.06424984  0.10017148  0.82754023    -0.71000
O53         O  0.03932478  0.50814440  0.90514255    -0.70800
O54         O  0.40830402  0.04514533  0.86254912    -0.70300
O55         O  0.10244989  0.06728341  0.85815394    -0.71000
O56         O  0.44939409  0.08980512  0.83187580    -0.70600
O57         O  0.46025954  0.48966000  0.90516093    -0.71200
O58         O  0.43540045  0.39726125  0.82763374    -0.70600
O59         O  0.09127873  0.45233791  0.86261359    -0.71300
O60         O  0.39720749  0.43021321  0.85825061    -0.70700
O61         O  0.05026715  0.40763216  0.83194818    -0.71200
O62         O  0.00178251  0.46026511  0.78505810    -0.71100
O63         O  0.99787299  0.03704648  0.78505316    -0.70900
C64         C  0.10029482  0.10030904  0.84194515     0.80900
C65         C  0.99978835  0.49895117  0.91709824     0.81400
C66         C  0.41514728  0.08157838  0.84797968     0.80400
C67         C  0.39935726  0.39715683  0.84205700     0.80700
C68         C  0.08446399  0.41587498  0.84806609     0.81900
C69         C  0.99982673  0.49864356  0.77308277     0.80900
C70         C  0.21287482  0.21190320  0.83745138     0.33800
C71         C  0.28671100  0.28564065  0.83751628     0.33800
C72         C  0.25785610  0.20231807  0.85091876    -0.02400
C73         C  0.23076998  0.22988797  0.81055065    -0.03200
C74         C  0.20327764  0.25676158  0.85100881    -0.03100
C75         C  0.29629773  0.24066614  0.85093780    -0.02400
C76         C  0.26880889  0.26790040  0.81058462    -0.03200
C77         C  0.24172790  0.29511803  0.85105769    -0.03100
C78         C  0.33709335  0.22154275  0.85186472    -0.28500
N79         N  0.32471822  0.17380775  0.85325081     0.18000
C80         C  0.27691501  0.16155894  0.85187105    -0.28500
H81         H  0.25771499  0.12573415  0.84881339     0.20000
C82         C  0.28001903  0.27930117  0.78506901    -0.27400
N83         N  0.24973063  0.24913891  0.76978740     0.16800
C84         C  0.21948729  0.21879290  0.78501447    -0.27400
C85         C  0.22265606  0.33586879  0.85206342    -0.27700
N86         N  0.17484895  0.32361679  0.85340876     0.17300
H87         H  0.24186188  0.37170480  0.84904289     0.19900
C88         C  0.16248217  0.27589065  0.85194934    -0.27700
H89         H  0.12659901  0.25681235  0.84882616     0.19900
H90         H  0.19153270  0.19092268  0.77801504     0.19900
H91         H  0.37299258  0.24064369  0.84880308     0.20000
H92         H  0.30793458  0.30727355  0.77812035     0.19900
Zn93       Zn  0.05584986  0.50215248  0.14110460     1.49700
Zn94       Zn  0.50773662  0.05631292  0.09697333     1.49400
Zn95       Zn  0.49165910  0.44280364  0.09703975     1.49100
Zn96       Zn  0.44352314  0.49711273  0.14113614     1.49500
O97         O  0.49968614  0.49959737  0.11902618    -1.80300
O98         O  0.10118983  0.06419184  0.13657914    -0.71000
O99         O  0.50892543  0.03895965  0.05901125    -0.70800
O100        O  0.04631046  0.40833294  0.10168561    -0.70300
O101        O  0.06810574  0.10215527  0.10594387    -0.71000
O102        O  0.09105855  0.44944896  0.13230205    -0.70600
O103        O  0.49056091  0.46002030  0.05906074    -0.71200
O104        O  0.39815913  0.43505672  0.13666084    -0.70600
O105        O  0.45305589  0.09077459  0.10158171    -0.71300
O106        O  0.43127217  0.39701039  0.10605207    -0.70700
O107        O  0.40834504  0.04982953  0.13229379    -0.71200
O108        O  0.46122367  0.50150258  0.17914994    -0.71100
O109        O  0.03816045  0.49779865  0.17911599    -0.70900
C110        C  0.10119621  0.10014755  0.12215788     0.80900
C111        C  0.49975587  0.49946819  0.04708990     0.81400
C112        C  0.08281089  0.41521206  0.11623495     0.80400
C113        C  0.39816571  0.39906014  0.12226765     0.80700
C114        C  0.41657483  0.08397969  0.11616704     0.81900
C115        C  0.49969853  0.49964491  0.19110411     0.80900
C116        C  0.21270256  0.21278429  0.12673646     0.33800
C117        C  0.28668996  0.28637051  0.12679931     0.33800
C118        C  0.20326567  0.25777277  0.11327810    -0.02400
C119        C  0.23059680  0.23053426  0.15366679    -0.03200
C120        C  0.25766617  0.20315388  0.11323217    -0.03100
C121        C  0.24175612  0.29607806  0.11332204    -0.02400
C122        C  0.26873479  0.26844824  0.15369995    -0.03200
C123        C  0.29616281  0.24146110  0.11325407    -0.03100
C124        C  0.22272789  0.33687967  0.11240983    -0.28500
N125        N  0.17491882  0.32465941  0.11099021     0.18000
C126        C  0.16251567  0.27693280  0.11232612    -0.28500
H127        H  0.12660009  0.25784878  0.11535402     0.20000
C128        C  0.28002237  0.27953946  0.17923533    -0.27400
N129        N  0.24966899  0.24930252  0.19446161     0.16800
C130        C  0.21931260  0.21920766  0.17918148    -0.27400
C131        C  0.33691162  0.22229214  0.11229469    -0.27700
N132        N  0.32450956  0.17457152  0.11088994     0.17300
H133        H  0.37281417  0.24135385  0.11537351     0.19900
C134        C  0.27669505  0.16235417  0.11227301    -0.27700
H135        H  0.25746593  0.12653859  0.11533359     0.19900
H136        H  0.19131168  0.19132077  0.18613083     0.19900
H137        H  0.24194180  0.37268462  0.11551511     0.20000
H138        H  0.30805235  0.30733399  0.18623489     0.19900
C139        C  0.46281297  0.46214078  0.33736900     0.33800
C140        C  0.03681566  0.03571216  0.33745493     0.33800
C141        C  0.00772455  0.45241984  0.35086205    -0.02400
C142        C  0.48079838  0.48006534  0.31047522    -0.03200
C143        C  0.45333431  0.00705151  0.35091040    -0.03100
C144        C  0.04622294  0.49071417  0.35091804    -0.02400
C145        C  0.01894065  0.01797457  0.31051845    -0.03200
C146        C  0.49183972  0.04535388  0.35094400    -0.03100
C147        C  0.08696223  0.47153915  0.35189692    -0.28500
N148        N  0.07454123  0.42381334  0.35323815     0.18000
C149        C  0.02673334  0.41160850  0.35179532    -0.28500
H150        H  0.00751248  0.37580671  0.34868796     0.20000
C151        C  0.03020351  0.02934426  0.28500573    -0.27400
N152        N  0.49983320  0.49927534  0.26971975     0.16800
C153        C  0.46948750  0.46901922  0.28493887    -0.27400
C154        C  0.47281336  0.08615800  0.35187785    -0.27700
N155        N  0.42499600  0.07394883  0.35323639     0.17300
H156        H  0.49205249  0.12197030  0.34881859     0.19900
C157        C  0.41258910  0.02622921  0.35183943    -0.27700
H158        H  0.37668910  0.00717092  0.34874606     0.19900
H159        H  0.44143402  0.44125401  0.27793345     0.19900
H160        H  0.12288684  0.49061076  0.34888376     0.20000
H161        H  0.05819142  0.05724944  0.27806190     0.19900
Zn162      Zn  0.25785974  0.30572607  0.36715129     1.49700
Zn163      Zn  0.19363509  0.24635238  0.32310109     1.49400
Zn164      Zn  0.30595471  0.25141710  0.32303222     1.49100
Zn165      Zn  0.24180807  0.19221700  0.36722337     1.49500
O166        O  0.24981970  0.24892606  0.34516608    -1.80300
O167        O  0.20318179  0.34017078  0.36252686    -0.71000
O168        O  0.21128789  0.25076473  0.28507961    -0.70800
O169        O  0.35133063  0.31346166  0.32750502    -0.70300
O170        O  0.15839474  0.29901647  0.33193729    -0.71000
O171        O  0.31822661  0.35152620  0.35810976    -0.70600
O172        O  0.28822576  0.24707237  0.28502416    -0.71200
O173        O  0.29648869  0.15776347  0.36258306    -0.70600
O174        O  0.14833535  0.18428833  0.32762577    -0.71300
O175        O  0.34113206  0.19868756  0.33183838    -0.70700
O176        O  0.18142728  0.14635759  0.35827281    -0.71200
O177        O  0.24067651  0.20958382  0.40518992    -0.71100
O178        O  0.25901498  0.28852947  0.40513617    -0.70900
C179        C  0.16665258  0.33326193  0.34799881     0.80900
C180        C  0.24974497  0.24894274  0.27308000     0.81400
C181        C  0.35132690  0.34946682  0.34189159     0.80400
C182        C  0.33293482  0.16454563  0.34797126     0.80700
C183        C  0.14833613  0.14834367  0.34205481     0.81900
C184        C  0.24984295  0.24908364  0.41711121     0.80900
C185        C  0.10976898  0.10875416  0.33983113    -0.09500
C186        C  0.07704735  0.07574554  0.33812831    -0.11000
C187        C  0.13368807  0.36513499  0.34984503    -0.09500
C188        C  0.10622437  0.39214932  0.35146756    -0.11000
C189        C  0.36587742  0.13264844  0.34980836    -0.09500
C190        C  0.39332489  0.10562027  0.35144127    -0.11000
C191        C  0.38989747  0.38904792  0.33962908    -0.09500
C192        C  0.42259648  0.42208674  0.33795346    -0.11000
C193        C  0.24969596  0.24915037  0.22171822    -0.09500
C194        C  0.24972091  0.24903079  0.24516588    -0.11000
C195        C  0.49971650  0.49959176  0.21901708    -0.09500
C196        C  0.49977109  0.49946914  0.24246403    -0.11000
C197        C  0.13976828  0.13972745  0.12438421    -0.09500
C198        C  0.17248352  0.17274153  0.12607826    -0.11000
C199        C  0.11576043  0.38332254  0.11440127    -0.09500
C200        C  0.14322527  0.35631031  0.11277547    -0.11000
C201        C  0.38363333  0.11587530  0.11430958    -0.09500
C202        C  0.35618616  0.14290357  0.11267388    -0.11000
C203        C  0.35959495  0.35947553  0.12452244    -0.09500
C204        C  0.32689950  0.32643262  0.12620127    -0.11000
C205        C  0.49978157  0.49907598  0.94497035    -0.14700
C206        C  0.49978769  0.49919222  0.96838477     0.09300
C207        C  0.49979433  0.49931983  0.99580334     0.11200
C208        C  0.49978626  0.49940569  0.01921778    -0.15600
C209        C  0.17274900  0.17176039  0.83804800    -0.09500
C210        C  0.13978754  0.13898159  0.83971857    -0.11000
C211        C  0.35630298  0.14204519  0.85147321    -0.09500
C212        C  0.38324590  0.11451213  0.84984313    -0.11000
C213        C  0.11634464  0.38292758  0.84996888    -0.09500
C214        C  0.14327465  0.35538670  0.85162050    -0.11000
C215        C  0.32685322  0.32576154  0.83817340    -0.09500
C216        C  0.35984378  0.35850500  0.83985566    -0.11000
C217        C  0.99980350  0.49864813  0.74516999    -0.09500
C218        C  0.99976979  0.49876735  0.72172319    -0.11000
C219        C  0.24969781  0.24928324  0.51924027    -0.14700
C220        C  0.24973547  0.24924802  0.49582394     0.09300
C221        C  0.24978627  0.24919848  0.46840242     0.11200
C222        C  0.24982269  0.24914795  0.44498620    -0.15600
C223        C  0.24966288  0.24940800  0.71908022    -0.09500
C224        C  0.24968984  0.24930057  0.74252926    -0.11000
C225        C  0.39330606  0.10625932  0.61279400    -0.09500
C226        C  0.36584172  0.13327361  0.61441908    -0.11000
C227        C  0.13351202  0.36561014  0.61437801    -0.09500
C228        C  0.10607128  0.39264175  0.61272857    -0.11000
C229        C  0.38968576  0.38961018  0.62439217    -0.09500
C230        C  0.42241344  0.42261564  0.62607229    -0.11000
C231        C  0.10963766  0.10923556  0.62455663    -0.09500
C232        C  0.07693065  0.07620355  0.62623133    -0.11000
Zn233      Zn  0.19348885  0.74689258  0.64118456     1.49700
Zn234      Zn  0.25764927  0.80614001  0.59701552     1.48600
Zn235      Zn  0.30581989  0.75202414  0.64115327     1.49100
Zn236      Zn  0.24166816  0.69264664  0.59706583     1.49500
O237        O  0.24965308  0.74942548  0.61906725    -1.80300
O238        O  0.15826497  0.79957940  0.63235763    -0.71000
O239        O  0.31800975  0.85200789  0.60597231    -0.70800
O240        O  0.28813536  0.74766543  0.67917477    -0.70300
O241        O  0.20294700  0.84055880  0.60164602    -0.71000
O242        O  0.21117746  0.75127094  0.67920286    -0.70600
O243        O  0.35112648  0.81408378  0.63661268    -0.71200
O244        O  0.29637627  0.65824379  0.60170247    -0.70600
O245        O  0.25880883  0.78881216  0.55904591    -0.71300
O246        O  0.34107125  0.69935054  0.63234345    -0.70700
O247        O  0.24052336  0.70986592  0.55908064    -0.71200
O248        O  0.18131443  0.64680165  0.60608855    -0.71100
O249        O  0.14816565  0.68482093  0.63669596    -0.70900
C250        C  0.16647102  0.83373702  0.61623484     0.80900
C251        C  0.35111234  0.85002540  0.62218266     0.81400
C252        C  0.24965862  0.74946069  0.69116183     0.80400
C253        C  0.33286564  0.66513401  0.61626112     0.80700
C254        C  0.24967247  0.74932225  0.54711463     0.81900
C255        C  0.14819967  0.64882947  0.62230308     0.80900
C256        C  0.46265531  0.96263564  0.62673410     0.33800
C257        C  0.03670101  0.53616273  0.62681855     0.33800
C258        C  0.45326262  0.50765556  0.61330058    -0.02400
C259        C  0.48056935  0.98033393  0.65366872    -0.03200
C260        C  0.00760277  0.95297676  0.61322239    -0.03100
C261        C  0.49177757  0.54593178  0.61335680    -0.02400
C262        C  0.01874864  0.51820726  0.65371347    -0.03200
C263        C  0.04612875  0.99126168  0.61325476    -0.03100
C264        C  0.47278983  0.58675913  0.61245182    -0.28500
N265        N  0.42497779  0.57457896  0.61102222     0.18000
C266        C  0.41253569  0.52685316  0.61234633    -0.28500
H267        H  0.37660687  0.50779249  0.61536023     0.20000
C268        C  0.03007857  0.52922355  0.67925157    -0.27400
N269        N  0.99970390  0.99898776  0.69446762     0.16800
C270        C  0.46930790  0.96895129  0.67917912    -0.27400
C271        C  0.08685559  0.97205293  0.61232377    -0.27700
N272        N  0.07442065  0.92433592  0.61092736     0.17300
H273        H  0.12276236  0.99108859  0.61542224     0.19900
C274        C  0.02660230  0.91215625  0.61228710    -0.27700
H275        H  0.00734480  0.87635329  0.61535334     0.19900
H276        H  0.44130000  0.94106303  0.68611988     0.19900
H277        H  0.49203134  0.62255142  0.61556329     0.20000
H278        H  0.05813859  0.55697896  0.68626003     0.19900
Zn279      Zn  0.00223379  0.55474162  0.82304918     1.49700
Zn280      Zn  0.05668134  0.00690388  0.86717334     1.49400
Zn281      Zn  0.44294470  0.99063573  0.86719256     1.49100
Zn282      Zn  0.99743030  0.94267122  0.82308400     1.49500
O283        O  0.99982049  0.99873428  0.84517039    -1.80300
O284        O  0.06425878  0.60016528  0.82753580    -0.71000
O285        O  0.03933209  0.00813218  0.90514032    -0.70800
O286        O  0.40830694  0.54515118  0.86253947    -0.70300
O287        O  0.10245088  0.56728641  0.85815682    -0.71000
O288        O  0.44940392  0.58980671  0.83186684    -0.70600
O289        O  0.46026683  0.98964781  0.90516304    -0.71200
O290        O  0.43539184  0.89726743  0.82762901    -0.70600
O291        O  0.09127586  0.95233201  0.86260393    -0.71300
O292        O  0.39720649  0.93021004  0.85825313    -0.70700
O293        O  0.05025774  0.90763091  0.83193896    -0.71200
O294        O  0.00176973  0.96027772  0.78505515    -0.71100
O295        O  0.99788568  0.53703390  0.78505031    -0.70900
C296        C  0.10030000  0.60030683  0.84194411     0.80900
C297        C  0.99979792  0.99893684  0.91709817     0.81400
C298        C  0.41515424  0.58158299  0.84796907     0.80400
C299        C  0.39935231  0.89715890  0.84205562     0.80700
C300        C  0.08445719  0.91587044  0.84805539     0.81900
C301        C  0.99981234  0.99865862  0.77308271     0.80900
C302        C  0.21287716  0.71190175  0.83744920     0.33800
C303        C  0.28670882  0.78564212  0.83751403     0.33800
C304        C  0.25785949  0.70231877  0.85091635    -0.02400
C305        C  0.23077097  0.72988715  0.81054843    -0.03200
C306        C  0.20327632  0.75675892  0.85100647    -0.03100
C307        C  0.29629928  0.74066880  0.85093532    -0.02400
C308        C  0.26880783  0.76790142  0.81058238    -0.03200
C309        C  0.24172478  0.79511736  0.85105534    -0.03100
C310        C  0.33709677  0.72154763  0.85185847    -0.28500
N311        N  0.32472488  0.67381231  0.85324230     0.18000
C312        C  0.27692164  0.66156106  0.85186485    -0.28500
H313        H  0.25772349  0.62573661  0.84880588     0.20000
C314        C  0.28001736  0.77930289  0.78506686    -0.27400
N315        N  0.24973048  0.74913911  0.76978531     0.16800
C316        C  0.21948872  0.71879153  0.78501233    -0.27400
C317        C  0.22264966  0.83586660  0.85205726    -0.27700
N318        N  0.17484261  0.82361239  0.85340039     0.17300
H319        H  0.24185400  0.87170288  0.84903527     0.19900
C320        C  0.16247900  0.77588584  0.85194328    -0.27700
H321        H  0.12659729  0.75680531  0.84881872     0.19900
H322        H  0.19153546  0.69091985  0.77801287     0.19900
H323        H  0.37299471  0.74065095  0.84879542     0.20000
H324        H  0.30793164  0.80727683  0.77811816     0.19900
Zn325      Zn  0.05585023  0.00215477  0.14110557     1.49700
Zn326      Zn  0.50773494  0.55631423  0.09697522     1.49400
Zn327      Zn  0.49166107  0.94280235  0.09704152     1.49100
Zn328      Zn  0.44352360  0.99711494  0.14113514     1.49500
O329        O  0.49968758  0.99959822  0.11902614    -1.80300
O330        O  0.10119029  0.56418965  0.13657892    -0.71000
O331        O  0.50892097  0.53896531  0.05901266    -0.70800
O332        O  0.04631167  0.90833232  0.10168921    -0.70300
O333        O  0.06810464  0.60215584  0.10594561    -0.71000
O334        O  0.09106035  0.94945112  0.13230449    -0.70600
O335        O  0.49056589  0.96001462  0.05906206    -0.71200
O336        O  0.39815891  0.93505865  0.13666044    -0.70600
O337        O  0.45305509  0.59077537  0.10158524    -0.71300
O338        O  0.43127374  0.89700976  0.10605364    -0.70700
O339        O  0.40834355  0.54982769  0.13229620    -0.71200
O340        O  0.46122196  0.00150720  0.17914903    -0.71100
O341        O  0.03815880  0.99780360  0.17911690    -0.70900
C342        C  0.10119615  0.60014662  0.12215868     0.80900
C343        C  0.49976185  0.99946099  0.04708985     0.81400
C344        C  0.08281235  0.91521279  0.11623827     0.80400
C345        C  0.39816617  0.89906084  0.12226827     0.80700
C346        C  0.41657378  0.58397922  0.11617028     0.81900
C347        C  0.49969602  0.99965028  0.19110411     0.80900
C348        C  0.21270281  0.71278396  0.12673658     0.33800
C349        C  0.28669006  0.78637061  0.12679942     0.33800
C350        C  0.20326564  0.75777245  0.11327833    -0.02400
C351        C  0.23059725  0.73053387  0.15366684    -0.03200
C352        C  0.25766640  0.70315390  0.11323215    -0.03100
C353        C  0.24175608  0.79607794  0.11332225    -0.02400
C354        C  0.26873506  0.76844804  0.15370002    -0.03200
C355        C  0.29616304  0.74146135  0.11325404    -0.03100
C356        C  0.22272772  0.83687944  0.11241074    -0.28500
N357        N  0.17491869  0.82465914  0.11099162     0.18000
C358        C  0.16251564  0.77693252  0.11232711    -0.28500
H359        H  0.12660004  0.75784828  0.11535551     0.20000
C360        C  0.28002245  0.77953930  0.17923537    -0.27400
N361        N  0.24966925  0.74930221  0.19446159     0.16800
C362        C  0.21931298  0.71920713  0.17918150    -0.27400
C363        C  0.33691183  0.72229236  0.11229534    -0.27700
N364        N  0.32450993  0.67457175  0.11089108     0.17300
H365        H  0.37281450  0.74135432  0.11537461     0.19900
C366        C  0.27669542  0.66235430  0.11227361    -0.27700
H367        H  0.25746635  0.62653889  0.11533452     0.19900
H368        H  0.19131239  0.69132040  0.18613080     0.19900
H369        H  0.24194159  0.87268434  0.11551640     0.20000
H370        H  0.30805235  0.80733426  0.18623500     0.19900
C371        C  0.46281163  0.96214147  0.33736916     0.33800
C372        C  0.03681690  0.53571159  0.33745512     0.33800
C373        C  0.00772438  0.95241958  0.35086047    -0.02400
C374        C  0.48079436  0.98006822  0.31047527    -0.03200
C375        C  0.45333450  0.50705184  0.35090859    -0.03100
C376        C  0.04622265  0.99071367  0.35091624    -0.02400
C377        C  0.01894459  0.51797176  0.31051852    -0.03200
C378        C  0.49183973  0.54535404  0.35094241    -0.03100
C379        C  0.08696195  0.97153870  0.35189488    -0.28500
N380        N  0.07454079  0.92381285  0.35323635     0.18000
C381        C  0.02673284  0.91160806  0.35179376    -0.28500
H382        H  0.00751175  0.87580618  0.34868693     0.20000
C383        C  0.03020939  0.52933961  0.28500581    -0.27400
N384        N  0.49982606  0.99928101  0.26971976     0.16800
C385        C  0.46948137  0.96902385  0.28493892    -0.27400
C386        C  0.47281356  0.58615827  0.35187615    -0.27700
N387        N  0.42499613  0.57394902  0.35323446     0.17300
H388        H  0.49205285  0.62197047  0.34881745     0.19900
C389        C  0.41258911  0.52622933  0.35183742    -0.27700
H390        H  0.37668938  0.50717112  0.34874436     0.19900
H391        H  0.44142793  0.94125891  0.27793363     0.19900
H392        H  0.12288651  0.99061028  0.34888184     0.20000
H393        H  0.05819755  0.55724518  0.27806197     0.19900
Zn394      Zn  0.25785934  0.80572589  0.36715090     1.49700
Zn395      Zn  0.19363507  0.74635184  0.32310085     1.49400
Zn396      Zn  0.30595464  0.75141744  0.32303190     1.49100
Zn397      Zn  0.24180856  0.69221717  0.36722298     1.49500
O398        O  0.24981976  0.74892612  0.34516571    -1.80300
O399        O  0.20318098  0.84017006  0.36252643    -0.71000
O400        O  0.21128741  0.75076288  0.28507933    -0.70800
O401        O  0.35133072  0.81346177  0.32750533    -0.70300
O402        O  0.15839475  0.79901598  0.33193649    -0.71000
O403        O  0.31822577  0.85152620  0.35810973    -0.70600
O404        O  0.28822606  0.74707390  0.28502394    -0.71200
O405        O  0.29648891  0.65776359  0.36258248    -0.70600
O406        O  0.14833541  0.68428823  0.32762610    -0.71300
O407        O  0.34113188  0.69868781  0.33183772    -0.70700
O408        O  0.18142785  0.64635775  0.35827300    -0.71200
O409        O  0.24067731  0.70958369  0.40518937    -0.71100
O410        O  0.25901473  0.78852936  0.40513556    -0.70900
C411        C  0.16665212  0.83326129  0.34799811     0.80900
C412        C  0.24974492  0.74894258  0.27307978     0.81400
C413        C  0.35132651  0.84946688  0.34189187     0.80400
C414        C  0.33293484  0.66454582  0.34797055     0.80700
C415        C  0.14833643  0.64834374  0.34205521     0.81900
C416        C  0.24984331  0.74908356  0.41711059     0.80900
C417        C  0.10976939  0.60875420  0.33983171    -0.09500
C418        C  0.07704813  0.57574531  0.33812881    -0.11000
C419        C  0.13368749  0.86513423  0.34984406    -0.09500
C420        C  0.10622381  0.89214866  0.35146621    -0.11000
C421        C  0.36587743  0.63264862  0.34980739    -0.09500
C422        C  0.39332496  0.60562047  0.35143988    -0.11000
C423        C  0.38989682  0.88904815  0.33962959    -0.09500
C424        C  0.42259539  0.92208732  0.33795384    -0.11000
C425        C  0.24969608  0.74915002  0.22171814    -0.09500
C426        C  0.24972097  0.74903055  0.24516574    -0.11000
C427        C  0.49971171  0.99959794  0.21901709    -0.09500
C428        C  0.49976436  0.99947516  0.24246404    -0.11000
C429        C  0.13976876  0.63972627  0.12438498    -0.09500
C430        C  0.17248390  0.67274071  0.12607863    -0.11000
C431        C  0.11576165  0.88332309  0.11440493    -0.09500
C432        C  0.14322558  0.85631018  0.11277823    -0.11000
C433        C  0.38363262  0.61587503  0.11431309    -0.09500
C434        C  0.35618620  0.64290380  0.11267642    -0.11000
C435        C  0.35959493  0.85947637  0.12452302    -0.09500
C436        C  0.32689948  0.82643321  0.12620158    -0.11000
C437        C  0.49979583  0.99905823  0.94497028    -0.14700
C438        C  0.49980219  0.99917438  0.96838470     0.09300
C439        C  0.49980637  0.99930487  0.99580328     0.11200
C440        C  0.49979548  0.99939457  0.01921773    -0.15600
C441        C  0.17275364  0.67175737  0.83804601    -0.09500
C442        C  0.13979297  0.63897827  0.83971703    -0.11000
C443        C  0.35631150  0.64205186  0.85146156    -0.09500
C444        C  0.38325461  0.61451907  0.84983034    -0.11000
C445        C  0.11633604  0.88292065  0.84995605    -0.09500
C446        C  0.14326641  0.85538015  0.85160888    -0.11000
C447        C  0.32684885  0.82576441  0.83817125    -0.09500
C448        C  0.35983872  0.85850805  0.83985382    -0.11000
C449        C  0.99978511  0.99866845  0.74516992    -0.09500
C450        C  0.99974901  0.99878876  0.72172310    -0.11000
C451        C  0.24969821  0.74928304  0.51923934    -0.14700
C452        C  0.24973589  0.74924791  0.49582306     0.09300
C453        C  0.24978674  0.74919862  0.46840162     0.11200
C454        C  0.24982316  0.74914803  0.44498547    -0.15600
C455        C  0.24966239  0.74940842  0.71907827    -0.09500
C456        C  0.24968955  0.74930087  0.74252726    -0.11000
C457        C  0.39330915  0.60625748  0.61280195    -0.09500
C458        C  0.36584479  0.63327232  0.61442484    -0.11000
C459        C  0.13350954  0.86561191  0.61438333    -0.09500
C460        C  0.10606865  0.89264396  0.61273615    -0.11000
C461        C  0.38968098  0.88961413  0.62439027    -0.09500
C462        C  0.42240725  0.92262074  0.62607149    -0.11000
C463        C  0.10964274  0.60923151  0.62455467    -0.09500
C464        C  0.07693716  0.57619833  0.62623059    -0.11000
Zn465      Zn  0.69348951  0.24689457  0.64118615     1.49700
Zn466      Zn  0.75765357  0.30613911  0.59701651     1.48600
Zn467      Zn  0.80581945  0.25202199  0.64115478     1.49100
Zn468      Zn  0.74166345  0.19264749  0.59706678     1.49500
O469        O  0.74965307  0.24942540  0.61906876    -1.80300
O470        O  0.65826679  0.29958078  0.63235643    -0.71000
O471        O  0.81801362  0.35200636  0.60597436    -0.70800
O472        O  0.78813460  0.24766070  0.67917651    -0.70300
O473        O  0.70295117  0.34055724  0.60164459    -0.71000
O474        O  0.71117872  0.25127533  0.67920467    -0.70600
O475        O  0.85112777  0.31408115  0.63661521    -0.71200
O476        O  0.79637160  0.15824528  0.60170085    -0.70600
O477        O  0.75881593  0.28881172  0.55904700    -0.71300
O478        O  0.84106947  0.19934881  0.63234198    -0.70700
O479        O  0.74051576  0.20986638  0.55908163    -0.71200
O480        O  0.68131013  0.14680321  0.60609060    -0.71100
O481        O  0.64816429  0.18482342  0.63669870    -0.70900
C482        C  0.66647391  0.33373641  0.61623239     0.80900
C483        C  0.85111543  0.35002290  0.62218502     0.81400
C484        C  0.74965890  0.24946050  0.69116365     0.80400
C485        C  0.83286240  0.16513432  0.61625838     0.80700
C486        C  0.74967218  0.24932231  0.54711562     0.81900
C487        C  0.64819629  0.14883197  0.62230553     0.80900
C488        C  0.96266229  0.46262985  0.62673433     0.33800
C489        C  0.53669392  0.03616857  0.62681855     0.33800
C490        C  0.95325900  0.00765767  0.61329483    -0.02400
C491        C  0.98058415  0.48032057  0.65366882    -0.03200
C492        C  0.50760587  0.45297419  0.61321700    -0.03100
C493        C  0.99177424  0.04593434  0.61335114    -0.02400
C494        C  0.51873383  0.01822057  0.65371334    -0.03200
C495        C  0.54613231  0.49125942  0.61324930    -0.03100
C496        C  0.97278618  0.08676135  0.61244377    -0.28500
N497        N  0.92497445  0.07458105  0.61101292     0.18000
C498        C  0.91253231  0.02685548  0.61233834    -0.28500
H499        H  0.87660367  0.00779559  0.61535294     0.20000
C500        C  0.53005964  0.02924165  0.67925137    -0.27400
N501        N  0.49972526  0.49896693  0.69446770     0.16800
C502        C  0.96932682  0.46893332  0.67917911    -0.27400
C503        C  0.58685882  0.47205033  0.61231600    -0.27700
N504        N  0.57442365  0.42433359  0.61091831     0.17300
H505        H  0.62276550  0.49108510  0.61541513     0.19900
C506        C  0.52660557  0.41215392  0.61227934    -0.27700
H507        H  0.50734876  0.37635097  0.61534629     0.19900
H508        H  0.94131825  0.44104557  0.68611977     0.19900
H509        H  0.99202694  0.12255378  0.61555597     0.20000
H510        H  0.55811984  0.05699639  0.68625962     0.19900
Zn511      Zn  0.50222526  0.05474575  0.82305326     1.49700
Zn512      Zn  0.55668109  0.50690898  0.86717705     1.49400
Zn513      Zn  0.94294481  0.49064085  0.86718891     1.49100
Zn514      Zn  0.49743838  0.44266680  0.82308825     1.49500
O515        O  0.49982458  0.49873471  0.84517039    -1.80300
O516        O  0.56424984  0.10017146  0.82754024    -0.71000
O517        O  0.53932474  0.50814439  0.90514256    -0.70800
O518        O  0.90830402  0.04514533  0.86254912    -0.70300
O519        O  0.60244995  0.06728341  0.85815394    -0.71000
O520        O  0.94939413  0.08980510  0.83187580    -0.70600
O521        O  0.96025956  0.48965998  0.90516094    -0.71200
O522        O  0.93540049  0.39726128  0.82763378    -0.70600
O523        O  0.59127873  0.45233792  0.86261359    -0.71300
O524        O  0.89720737  0.43021324  0.85825058    -0.70700
O525        O  0.55026719  0.40763216  0.83194817    -0.71200
O526        O  0.50178231  0.46026505  0.78505809    -0.71100
O527        O  0.49787288  0.03704647  0.78505316    -0.70900
C528        C  0.60029486  0.10030902  0.84194515     0.80900
C529        C  0.49978831  0.49895117  0.91709824     0.81400
C530        C  0.91514727  0.08157836  0.84797966     0.80400
C531        C  0.89935725  0.39715684  0.84205700     0.80700
C532        C  0.58446403  0.41587499  0.84806608     0.81900
C533        C  0.49982682  0.49864357  0.77308277     0.80900
C534        C  0.71287483  0.21190321  0.83745138     0.33800
C535        C  0.78671101  0.28564066  0.83751628     0.33800
C536        C  0.75785607  0.20231808  0.85091877    -0.02400
C537        C  0.73076997  0.22988798  0.81055065    -0.03200
C538        C  0.70327767  0.25676158  0.85100881    -0.03100
C539        C  0.79629771  0.24066612  0.85093779    -0.02400
C540        C  0.76880885  0.26790044  0.81058462    -0.03200
C541        C  0.74172794  0.29511803  0.85105770    -0.03100
C542        C  0.83709337  0.22154276  0.85186472    -0.28500
N543        N  0.82471816  0.17380773  0.85325081     0.18000
C544        C  0.77691497  0.16155894  0.85187105    -0.28500
H545        H  0.75771488  0.12573411  0.84881338     0.20000
C546        C  0.78001905  0.27930118  0.78506902    -0.27400
N547        N  0.74973070  0.24913888  0.76978740     0.16800
C548        C  0.71948733  0.21879288  0.78501446    -0.27400
C549        C  0.72265612  0.33586880  0.85206342    -0.27700
N550        N  0.67484901  0.32361679  0.85340876     0.17300
H551        H  0.74186195  0.37170480  0.84904288     0.19900
C552        C  0.66248222  0.27589066  0.85194934    -0.27700
H553        H  0.62659906  0.25681236  0.84882616     0.19900
H554        H  0.69153277  0.19092265  0.77801502     0.19900
H555        H  0.87299232  0.24064352  0.84880310     0.20000
H556        H  0.80793463  0.30727350  0.77812037     0.19900
Zn557      Zn  0.55584990  0.50215249  0.14110459     1.49700
Zn558      Zn  0.00773658  0.05631292  0.09697333     1.49400
Zn559      Zn  0.99165916  0.44280363  0.09703976     1.49100
Zn560      Zn  0.94352320  0.49711273  0.14113614     1.49500
O561        O  0.99968620  0.49959736  0.11902617    -1.80300
O562        O  0.60118988  0.06419183  0.13657914    -0.71000
O563        O  0.00892532  0.03895966  0.05901125    -0.70800
O564        O  0.54631040  0.40833296  0.10168561    -0.70300
O565        O  0.56810579  0.10215525  0.10594387    -0.71000
O566        O  0.59105854  0.44944894  0.13230205    -0.70600
O567        O  0.99056099  0.46002029  0.05906074    -0.71200
O568        O  0.89815919  0.43505671  0.13666084    -0.70600
O569        O  0.95305590  0.09077457  0.10158174    -0.71300
O570        O  0.93127221  0.39701038  0.10605207    -0.70700
O571        O  0.90834492  0.04982951  0.13229377    -0.71200
O572        O  0.96122369  0.50150259  0.17914995    -0.71100
O573        O  0.53816044  0.49779865  0.17911600    -0.70900
C574        C  0.60119625  0.10014753  0.12215787     0.80900
C575        C  0.99975591  0.49946819  0.04708990     0.81400
C576        C  0.58281082  0.41521204  0.11623496     0.80400
C577        C  0.89816576  0.39906013  0.12226766     0.80700
C578        C  0.91657479  0.08397970  0.11616705     0.81900
C579        C  0.99969855  0.49964491  0.19110411     0.80900
C580        C  0.71270254  0.21278432  0.12673646     0.33800
C581        C  0.78668994  0.28637053  0.12679930     0.33800
C582        C  0.70326567  0.25777279  0.11327810    -0.02400
C583        C  0.73059684  0.23053425  0.15366679    -0.03200
C584        C  0.75766612  0.20315387  0.11323216    -0.03100
C585        C  0.74175610  0.29607809  0.11332205    -0.02400
C586        C  0.76873483  0.26844824  0.15369995    -0.03200
C587        C  0.79616278  0.24146110  0.11325406    -0.03100
C588        C  0.72272784  0.33687966  0.11240983    -0.28500
N589        N  0.67491879  0.32465942  0.11099021     0.18000
C590        C  0.66251567  0.27693280  0.11232612    -0.28500
H591        H  0.62660012  0.25784874  0.11535402     0.20000
C592        C  0.78002243  0.27953945  0.17923533    -0.27400
N593        N  0.74966906  0.24930251  0.19446161     0.16800
C594        C  0.71931266  0.21920766  0.17918148    -0.27400
C595        C  0.83691160  0.22229212  0.11229469    -0.27700
N596        N  0.82450951  0.17457150  0.11088994     0.17300
H597        H  0.87281409  0.24135380  0.11537350     0.19900
C598        C  0.77669500  0.16235416  0.11227301    -0.27700
H599        H  0.75746581  0.12653855  0.11533360     0.19900
H600        H  0.69131173  0.19132078  0.18613083     0.19900
H601        H  0.74194178  0.37268475  0.11551513     0.20000
H602        H  0.80805241  0.30733400  0.18623489     0.19900
C603        C  0.96281295  0.46214079  0.33736899     0.33800
C604        C  0.53681565  0.03571216  0.33745492     0.33800
C605        C  0.50772459  0.45241985  0.35086205    -0.02400
C606        C  0.98079837  0.48006534  0.31047521    -0.03200
C607        C  0.95333429  0.00705152  0.35091039    -0.03100
C608        C  0.54622299  0.49071418  0.35091804    -0.02400
C609        C  0.51894063  0.01797453  0.31051844    -0.03200
C610        C  0.99183971  0.04535388  0.35094400    -0.03100
C611        C  0.58696227  0.47153914  0.35189692    -0.28500
N612        N  0.57454125  0.42381332  0.35323816     0.18000
C613        C  0.52673336  0.41160851  0.35179533    -0.28500
H614        H  0.50751249  0.37580672  0.34868796     0.20000
C615        C  0.53020352  0.02934420  0.28500571    -0.27400
N616        N  0.99983324  0.49927533  0.26971975     0.16800
C617        C  0.96948753  0.46901919  0.28493886    -0.27400
C618        C  0.97281332  0.08615800  0.35187785    -0.27700
N619        N  0.92499598  0.07394883  0.35323639     0.17300
H620        H  0.99205247  0.12197030  0.34881859     0.19900
C621        C  0.91258900  0.02622918  0.35183942    -0.27700
H622        H  0.87668931  0.00717107  0.34874608     0.19900
H623        H  0.94143407  0.44125398  0.27793344     0.19900
H624        H  0.62288691  0.49061073  0.34888376     0.20000
H625        H  0.55819118  0.05724925  0.27806189     0.19900
Zn626      Zn  0.75785981  0.30572607  0.36715129     1.49700
Zn627      Zn  0.69363513  0.24635238  0.32310109     1.49400
Zn628      Zn  0.80595476  0.25141710  0.32303221     1.49100
Zn629      Zn  0.74180807  0.19221700  0.36722337     1.49500
O630        O  0.74981976  0.24892606  0.34516608    -1.80300
O631        O  0.70318184  0.34017079  0.36252686    -0.71000
O632        O  0.71128774  0.25076473  0.28507963    -0.70800
O633        O  0.85133069  0.31346166  0.32750501    -0.70300
O634        O  0.65839479  0.29901647  0.33193729    -0.71000
O635        O  0.81822667  0.35152620  0.35810976    -0.70600
O636        O  0.78822562  0.24707238  0.28502415    -0.71200
O637        O  0.79648860  0.15776346  0.36258302    -0.70600
O638        O  0.64833538  0.18428831  0.32762575    -0.71300
O639        O  0.84113209  0.19868757  0.33183839    -0.70700
O640        O  0.68142717  0.14635761  0.35827285    -0.71200
O641        O  0.74067658  0.20958382  0.40518992    -0.71100
O642        O  0.75901504  0.28852947  0.40513617    -0.70900
C643        C  0.66665262  0.33326195  0.34799881     0.80900
C644        C  0.74974481  0.24894274  0.27308000     0.81400
C645        C  0.85132696  0.34946681  0.34189159     0.80400
C646        C  0.83293478  0.16454563  0.34797126     0.80700
C647        C  0.64833610  0.14834366  0.34205480     0.81900
C648        C  0.74984301  0.24908364  0.41711121     0.80900
C649        C  0.60976893  0.10875417  0.33983111    -0.09500
C650        C  0.57704726  0.07574558  0.33812831    -0.11000
C651        C  0.63368808  0.36513497  0.34984503    -0.09500
C652        C  0.60622433  0.39214927  0.35146755    -0.11000
C653        C  0.86587736  0.13264843  0.34980838    -0.09500
C654        C  0.89332482  0.10562026  0.35144127    -0.11000
C655        C  0.88989751  0.38904790  0.33962908    -0.09500
C656        C  0.92259648  0.42208675  0.33795346    -0.11000
C657        C  0.74969595  0.24915038  0.22171822    -0.09500
C658        C  0.74972072  0.24903079  0.24516588    -0.11000
C659        C  0.99971655  0.49959176  0.21901708    -0.09500
C660        C  0.99977115  0.49946914  0.24246403    -0.11000
C661        C  0.63976828  0.13972745  0.12438421    -0.09500
C662        C  0.67248344  0.17274159  0.12607827    -0.11000
C663        C  0.61576032  0.38332247  0.11440127    -0.09500
C664        C  0.64322520  0.35631029  0.11277547    -0.11000
C665        C  0.88363335  0.11587537  0.11430957    -0.09500
C666        C  0.85618614  0.14290358  0.11267387    -0.11000
C667        C  0.85959495  0.35947553  0.12452243    -0.09500
C668        C  0.82689944  0.32643268  0.12620126    -0.11000
C669        C  0.99978163  0.49907598  0.94497035    -0.14700
C670        C  0.99978768  0.49919222  0.96838477     0.09300
C671        C  0.99979417  0.49931983  0.99580334     0.11200
C672        C  0.99978623  0.49940569  0.01921778    -0.15600
C673        C  0.67274903  0.17176039  0.83804800    -0.09500
C674        C  0.63978758  0.13898157  0.83971856    -0.11000
C675        C  0.85630296  0.14204519  0.85147322    -0.09500
C676        C  0.88324588  0.11451215  0.84984313    -0.11000
C677        C  0.61634470  0.38292759  0.84996888    -0.09500
C678        C  0.64327471  0.35538670  0.85162050    -0.11000
C679        C  0.82685326  0.32576151  0.83817339    -0.09500
C680        C  0.85984383  0.35850497  0.83985565    -0.11000
C681        C  0.49980351  0.49864812  0.74516999    -0.09500
C682        C  0.49976973  0.49876735  0.72172318    -0.11000
C683        C  0.74969787  0.24928324  0.51924027    -0.14700
C684        C  0.74973553  0.24924802  0.49582394     0.09300
C685        C  0.74978633  0.24919848  0.46840242     0.11200
C686        C  0.74982275  0.24914795  0.44498620    -0.15600
C687        C  0.74966273  0.24940821  0.71908022    -0.09500
C688        C  0.74968984  0.24930066  0.74252927    -0.11000
C689        C  0.89330595  0.10625927  0.61279401    -0.09500
C690        C  0.86584163  0.13327359  0.61441909    -0.11000
C691        C  0.63351208  0.36561014  0.61437801    -0.09500
C692        C  0.60607134  0.39264176  0.61272857    -0.11000
C693        C  0.88968581  0.38961014  0.62439218    -0.09500
C694        C  0.92241347  0.42261562  0.62607229    -0.11000
C695        C  0.60963759  0.10923562  0.62455661    -0.09500
C696        C  0.57693065  0.07620355  0.62623133    -0.11000
Zn697      Zn  0.69348891  0.74689258  0.64118456     1.49700
Zn698      Zn  0.75764932  0.80614001  0.59701551     1.48600
Zn699      Zn  0.80581992  0.75202412  0.64115327     1.49100
Zn700      Zn  0.74166822  0.69264664  0.59706583     1.49500
O701        O  0.74965314  0.74942548  0.61906726    -1.80300
O702        O  0.65826503  0.79957941  0.63235763    -0.71000
O703        O  0.81800975  0.85200793  0.60597227    -0.70800
O704        O  0.78813542  0.74766543  0.67917477    -0.70300
O705        O  0.70294705  0.84055880  0.60164602    -0.71000
O706        O  0.71117752  0.75127094  0.67920286    -0.70600
O707        O  0.85112630  0.81408381  0.63661270    -0.71200
O708        O  0.79637633  0.65824379  0.60170247    -0.70600
O709        O  0.75880889  0.78881216  0.55904591    -0.71300
O710        O  0.84107132  0.69935054  0.63234344    -0.70700
O711        O  0.74052342  0.70986592  0.55908064    -0.71200
O712        O  0.68131449  0.64680165  0.60608855    -0.71100
O713        O  0.64816571  0.68482092  0.63669596    -0.70900
C714        C  0.66647107  0.83373703  0.61623484     0.80900
C715        C  0.85111225  0.85002543  0.62218267     0.81400
C716        C  0.74965868  0.74946069  0.69116183     0.80400
C717        C  0.83286570  0.66513401  0.61626112     0.80700
C718        C  0.74967253  0.74932225  0.54711463     0.81900
C719        C  0.64819973  0.64882947  0.62230308     0.80900
C720        C  0.96265533  0.96263563  0.62673410     0.33800
C721        C  0.53670103  0.53616274  0.62681855     0.33800
C722        C  0.95326264  0.50765556  0.61330058    -0.02400
C723        C  0.98056937  0.98033393  0.65366872    -0.03200
C724        C  0.50760276  0.95297676  0.61322240    -0.03100
C725        C  0.99177759  0.54593178  0.61335680    -0.02400
C726        C  0.51874866  0.51820724  0.65371347    -0.03200
C727        C  0.54612876  0.99126166  0.61325477    -0.03100
C728        C  0.97278987  0.58675913  0.61245181    -0.28500
N729        N  0.92497784  0.57457896  0.61102222     0.18000
C730        C  0.91253574  0.52685316  0.61234633    -0.28500
H731        H  0.87660692  0.50779250  0.61536023     0.20000
C732        C  0.53007858  0.52922352  0.67925157    -0.27400
N733        N  0.49970386  0.99898776  0.69446762     0.16800
C734        C  0.96930794  0.96895127  0.67917912    -0.27400
C735        C  0.58685560  0.97205291  0.61232377    -0.27700
N736        N  0.57442063  0.92433590  0.61092737     0.17300
H737        H  0.62276232  0.99108853  0.61542223     0.19900
C738        C  0.52660228  0.91215625  0.61228710    -0.27700
H739        H  0.50734473  0.87635326  0.61535335     0.19900
H740        H  0.94130006  0.94106299  0.68611989     0.19900
H741        H  0.99203140  0.62255142  0.61556329     0.20000
H742        H  0.55813861  0.55697890  0.68626004     0.19900
Zn743      Zn  0.50223384  0.55474163  0.82304918     1.49700
Zn744      Zn  0.55668135  0.00690389  0.86717334     1.49400
Zn745      Zn  0.94294475  0.99063573  0.86719256     1.49100
Zn746      Zn  0.49743026  0.94267122  0.82308400     1.49500
O747        O  0.49982043  0.99873429  0.84517040    -1.80300
O748        O  0.56425882  0.60016527  0.82753581    -0.71000
O749        O  0.53933208  0.00813217  0.90514032    -0.70800
O750        O  0.90830701  0.54515119  0.86253947    -0.70300
O751        O  0.60245087  0.56728638  0.85815683    -0.71000
O752        O  0.94940397  0.58980672  0.83186684    -0.70600
O753        O  0.96026685  0.98964780  0.90516305    -0.71200
O754        O  0.93539189  0.89726742  0.82762902    -0.70600
O755        O  0.59127573  0.95233198  0.86260395    -0.71300
O756        O  0.89720655  0.93021003  0.85825313    -0.70700
O757        O  0.55025775  0.90763089  0.83193893    -0.71200
O758        O  0.50176976  0.96027773  0.78505514    -0.71100
O759        O  0.49788599  0.53703396  0.78505031    -0.70900
C760        C  0.60030003  0.60030679  0.84194411     0.80900
C761        C  0.49979789  0.99893685  0.91709817     0.81400
C762        C  0.91515429  0.58158300  0.84796908     0.80400
C763        C  0.89935235  0.89715888  0.84205562     0.80700
C764        C  0.58445716  0.91587043  0.84805539     0.81900
C765        C  0.49981231  0.99865862  0.77308271     0.80900
C766        C  0.71287713  0.71190177  0.83744919     0.33800
C767        C  0.78670882  0.78564211  0.83751403     0.33800
C768        C  0.75785945  0.70231878  0.85091637    -0.02400
C769        C  0.73077095  0.72988715  0.81054843    -0.03200
C770        C  0.70327634  0.75675893  0.85100647    -0.03100
C771        C  0.79629927  0.74066880  0.85093533    -0.02400
C772        C  0.76880785  0.76790139  0.81058238    -0.03200
C773        C  0.74172480  0.79511736  0.85105533    -0.03100
C774        C  0.83709673  0.72154759  0.85185847    -0.28500
N775        N  0.82472483  0.67381228  0.85324229     0.18000
C776        C  0.77692158  0.66156106  0.85186486    -0.28500
H777        H  0.75772342  0.62573665  0.84880589     0.20000
C778        C  0.78001738  0.77930284  0.78506686    -0.27400
N779        N  0.74973049  0.74913911  0.76978531     0.16800
C780        C  0.71948861  0.71879156  0.78501232    -0.27400
C781        C  0.72264972  0.83586660  0.85205726    -0.27700
N782        N  0.67484266  0.82361240  0.85340039     0.17300
H783        H  0.74185407  0.87170287  0.84903527     0.19900
C784        C  0.66247909  0.77588589  0.85194329    -0.27700
H785        H  0.62659715  0.75680521  0.84881871     0.19900
H786        H  0.69153546  0.69092011  0.77801291     0.19900
H787        H  0.87299470  0.74065090  0.84879542     0.20000
H788        H  0.80793169  0.80727678  0.77811816     0.19900
Zn789      Zn  0.55585027  0.00215477  0.14110557     1.49700
Zn790      Zn  0.00773511  0.55631422  0.09697522     1.49400
Zn791      Zn  0.99166111  0.94280238  0.09704151     1.49100
Zn792      Zn  0.94352363  0.99711495  0.14113513     1.49500
O793        O  0.99968759  0.99959823  0.11902613    -1.80300
O794        O  0.60119035  0.56418965  0.13657892    -0.71000
O795        O  0.00892097  0.53896532  0.05901266    -0.70800
O796        O  0.54631160  0.90833216  0.10168924    -0.70300
O797        O  0.56810464  0.60215581  0.10594562    -0.71000
O798        O  0.59106036  0.94945109  0.13230445    -0.70600
O799        O  0.99056590  0.96001462  0.05906206    -0.71200
O800        O  0.89815898  0.93505864  0.13666044    -0.70600
O801        O  0.95305518  0.59077536  0.10158525    -0.71300
O802        O  0.93127381  0.89700975  0.10605364    -0.70700
O803        O  0.90834361  0.54982770  0.13229620    -0.71200
O804        O  0.96122198  0.00150721  0.17914904    -0.71100
O805        O  0.53815880  0.99780360  0.17911691    -0.70900
C806        C  0.60119619  0.60014661  0.12215868     0.80900
C807        C  0.99976176  0.99946100  0.04708985     0.81400
C808        C  0.58281232  0.91521270  0.11623827     0.80400
C809        C  0.89816623  0.89906083  0.12226827     0.80700
C810        C  0.91657384  0.58397922  0.11617028     0.81900
C811        C  0.99969604  0.99965028  0.19110411     0.80900
C812        C  0.71270284  0.71278397  0.12673658     0.33800
C813        C  0.78669009  0.78637062  0.12679942     0.33800
C814        C  0.70326564  0.75777246  0.11327834    -0.02400
C815        C  0.73059730  0.73053387  0.15366684    -0.03200
C816        C  0.75766640  0.70315391  0.11323215    -0.03100
C817        C  0.74175610  0.79607794  0.11332226    -0.02400
C818        C  0.76873511  0.76844804  0.15370002    -0.03200
C819        C  0.79616306  0.74146135  0.11325404    -0.03100
C820        C  0.72272776  0.83687945  0.11241074    -0.28500
N821        N  0.67491870  0.82465916  0.11099162     0.18000
C822        C  0.66251565  0.77693255  0.11232711    -0.28500
H823        H  0.62659999  0.75784831  0.11535551     0.20000
C824        C  0.78002251  0.77953930  0.17923536    -0.27400
N825        N  0.74966932  0.74930221  0.19446159     0.16800
C826        C  0.71931304  0.71920713  0.17918150    -0.27400
C827        C  0.83691185  0.72229233  0.11229534    -0.27700
N828        N  0.82450991  0.67457172  0.11089108     0.17300
H829        H  0.87281447  0.74135425  0.11537460     0.19900
C830        C  0.77669542  0.66235432  0.11227361    -0.27700
H831        H  0.75746626  0.62653878  0.11533453     0.19900
H832        H  0.69131245  0.69132041  0.18613080     0.19900
H833        H  0.74194163  0.87268425  0.11551639     0.20000
H834        H  0.80805241  0.80733426  0.18623500     0.19900
C835        C  0.96281162  0.96214148  0.33736916     0.33800
C836        C  0.53681694  0.53571158  0.33745512     0.33800
C837        C  0.50772441  0.95241957  0.35086046    -0.02400
C838        C  0.98079439  0.98006824  0.31047527    -0.03200
C839        C  0.95333449  0.50705184  0.35090860    -0.03100
C840        C  0.54622268  0.99071367  0.35091624    -0.02400
C841        C  0.51894462  0.51797175  0.31051852    -0.03200
C842        C  0.99183971  0.54535406  0.35094241    -0.03100
C843        C  0.58696199  0.97153871  0.35189488    -0.28500
N844        N  0.57454085  0.92381285  0.35323635     0.18000
C845        C  0.52673289  0.91160806  0.35179376    -0.28500
H846        H  0.50751181  0.87580618  0.34868693     0.20000
C847        C  0.53020941  0.52933958  0.28500580    -0.27400
N848        N  0.99982608  0.99928115  0.26971976     0.16800
C849        C  0.96948142  0.96902390  0.28493890    -0.27400
C850        C  0.97281353  0.58615827  0.35187614    -0.27700
N851        N  0.92499611  0.57394900  0.35323446     0.17300
H852        H  0.99205282  0.62197052  0.34881743     0.19900
C853        C  0.91258909  0.52622931  0.35183743    -0.27700
H854        H  0.87668939  0.50717109  0.34874436     0.19900
H855        H  0.94142810  0.94125897  0.27793360     0.19900
H856        H  0.62288656  0.99061028  0.34888184     0.20000
H857        H  0.55819757  0.55724512  0.27806196     0.19900
Zn858      Zn  0.75785916  0.80572586  0.36715089     1.49700
Zn859      Zn  0.69363510  0.74635181  0.32310085     1.49400
Zn860      Zn  0.80595466  0.75141741  0.32303189     1.49100
Zn861      Zn  0.74180861  0.69221714  0.36722299     1.49500
O862        O  0.74981976  0.74892597  0.34516571    -1.80300
O863        O  0.70318099  0.84017009  0.36252643    -0.71000
O864        O  0.71128747  0.75076288  0.28507933    -0.70800
O865        O  0.85133058  0.81346179  0.32750530    -0.70300
O866        O  0.65839482  0.79901598  0.33193649    -0.71000
O867        O  0.81822576  0.85152620  0.35810977    -0.70600
O868        O  0.78822612  0.74707389  0.28502394    -0.71200
O869        O  0.79648897  0.65776359  0.36258248    -0.70600
O870        O  0.64833527  0.68428825  0.32762612    -0.71300
O871        O  0.84113195  0.69868782  0.33183771    -0.70700
O872        O  0.68142789  0.64635778  0.35827297    -0.71200
O873        O  0.74067741  0.70958369  0.40518938    -0.71100
O874        O  0.75901449  0.78852937  0.40513556    -0.70900
C875        C  0.66665216  0.83326130  0.34799810     0.80900
C876        C  0.74974498  0.74894258  0.27307978     0.81400
C877        C  0.85132647  0.84946687  0.34189188     0.80400
C878        C  0.83293490  0.66454583  0.34797055     0.80700
C879        C  0.64833641  0.64834375  0.34205520     0.81900
C880        C  0.74984329  0.74908356  0.41711059     0.80900
C881        C  0.60976943  0.60875417  0.33983172    -0.09500
C882        C  0.57704817  0.57574529  0.33812881    -0.11000
C883        C  0.63368754  0.86513424  0.34984405    -0.09500
C884        C  0.60622387  0.89214867  0.35146621    -0.11000
C885        C  0.86587747  0.63264863  0.34980739    -0.09500
C886        C  0.89332496  0.60562046  0.35143988    -0.11000
C887        C  0.88989686  0.88904811  0.33962959    -0.09500
C888        C  0.92259542  0.92208729  0.33795383    -0.11000
C889        C  0.74969614  0.74915002  0.22171814    -0.09500
C890        C  0.74972103  0.74903055  0.24516574    -0.11000
C891        C  0.99971177  0.99959794  0.21901709    -0.09500
C892        C  0.99976444  0.99947523  0.24246404    -0.11000
C893        C  0.63976881  0.63972626  0.12438498    -0.09500
C894        C  0.67248394  0.67274070  0.12607863    -0.11000
C895        C  0.61576161  0.88332302  0.11440495    -0.09500
C896        C  0.64322560  0.85631018  0.11277823    -0.11000
C897        C  0.88363266  0.61587505  0.11431308    -0.09500
C898        C  0.85618620  0.64290378  0.11267642    -0.11000
C899        C  0.85959499  0.85947636  0.12452302    -0.09500
C900        C  0.82689953  0.82643321  0.12620157    -0.11000
C901        C  0.99979588  0.99905823  0.94497028    -0.14700
C902        C  0.99980226  0.99917438  0.96838471     0.09300
C903        C  0.99980643  0.99930487  0.99580328     0.11200
C904        C  0.99979547  0.99939457  0.01921773    -0.15600
C905        C  0.67275355  0.67175744  0.83804600    -0.09500
C906        C  0.63979297  0.63897827  0.83971703    -0.11000
C907        C  0.85631148  0.64205184  0.85146156    -0.09500
C908        C  0.88325465  0.61451909  0.84983034    -0.11000
C909        C  0.61633609  0.88292069  0.84995606    -0.09500
C910        C  0.64326646  0.85538017  0.85160888    -0.11000
C911        C  0.82684880  0.82576446  0.83817125    -0.09500
C912        C  0.85983872  0.85850806  0.83985382    -0.11000
C913        C  0.49978506  0.99866845  0.74516992    -0.09500
C914        C  0.49974895  0.99878877  0.72172310    -0.11000
C915        C  0.74969827  0.74928304  0.51923934    -0.14700
C916        C  0.74973595  0.74924791  0.49582306     0.09300
C917        C  0.74978681  0.74919862  0.46840162     0.11200
C918        C  0.74982322  0.74914803  0.44498547    -0.15600
C919        C  0.74966245  0.74940842  0.71907827    -0.09500
C920        C  0.74968959  0.74930086  0.74252726    -0.11000
C921        C  0.89330921  0.60625748  0.61280195    -0.09500
C922        C  0.86584486  0.63327232  0.61442484    -0.11000
C923        C  0.63350958  0.86561194  0.61438333    -0.09500
C924        C  0.60606865  0.89264395  0.61273615    -0.11000
C925        C  0.88968098  0.88961411  0.62439029    -0.09500
C926        C  0.92240727  0.92262070  0.62607149    -0.11000
C927        C  0.60964280  0.60923151  0.62455467    -0.09500
C928        C  0.57693720  0.57619833  0.62623059    -0.11000
loop_ 
_geom_bond_atom_site_label_1 
_geom_bond_atom_site_label_2 
_geom_bond_distance 
_geom_bond_site_symmetry_2 
_ccdc_geom_bond_type 
Zn1           O5   1.961       .  S
Zn1           O6   2.019       .  S
Zn1          O10   2.020       .  S
Zn1          O17   2.012       .  S
Zn2           O5   1.962       .  S
Zn2           O7   2.021       .  S
Zn2           O9   2.016       .  S
Zn2          O13   2.019       .  S
Zn3           O5   1.960       .  S
Zn3           O8   2.020       .  S
Zn3          O11   2.012       .  S
Zn3          O14   2.019       .  S
Zn4           O5   1.962       .  S
Zn4          O12   2.016       .  S
Zn4          O15   2.019       .  S
Zn4          O16   2.021       .  S
O6           C18   1.272       .  A
O7           C19   1.273       .  A
O8           C20   1.272       .  A
O9           C18   1.272       .  A
O10          C20   1.272       .  A
O11          C19   1.271       .  A
O12          C21   1.272       .  A
O13          C22   1.272       .  A
O14          C21   1.272       .  A
O15          C22   1.272       .  A
O16          C23   1.273       .  A
O17          C23   1.271       .  A
C18         C227   1.435       .  S
C19         C229   1.434       .  S
C20         C223   1.437       .  S
C21         C226   1.435       .  S
C22         C219   1.435       .  S
C23         C231   1.434       .  S
C24          C27   1.532       .  S
C24         C258   1.533       .  S
C24         C492   1.533       .  S
C24         C230   1.468       .  S
C25          C30   1.532       .  S
C25         C493   1.533   1_455  S
C25         C263   1.533   1_545  S
C25         C232   1.468       .  S
C26         C256   1.533   1_545  S
C26          C34   1.381       .  A
C26          C29   1.404       .  A
C27          C38   1.377       .  A
C27         C726   1.390       .  A
C28         C488   1.533   1_455  S
C28          C42   1.381       .  A
C28          C31   1.404       .  A
C29         C489   1.533       .  S
C29          C32   1.381       .  A
C30          C36   1.377       .  A
C30         C723   1.390   1_445  A
C31         C257   1.533       .  S
C31          C39   1.381       .  A
C32          N33   1.351       .  A
C32          H45   1.083       .  S
N33          C34   1.351       .  A
N33         C225   1.401       .  S
C34          H35   1.083       .  S
C36         N269   1.357   1_445  A
C36          H46   1.083       .  S
N37         C268   1.357   1_655  A
N37         C502   1.357       .  A
N37         C218   1.403       .  S
C38         N501   1.357       .  A
C38          H44   1.083       .  S
C39          N40   1.351       .  A
C39          H41   1.083       .  S
N40          C42   1.351       .  A
N40         C228   1.401       .  S
C42          H43   1.083       .  S
Zn47        O283   1.960   1_445  S
Zn47         O52   2.011       .  S
Zn47         O63   2.019   1_455  S
Zn47        O520   2.018   1_455  S
Zn48         O51   1.962   1_455  S
Zn48         O53   2.019       .  S
Zn48         O59   2.016       .  S
Zn48        O287   2.022       .  S
Zn49        O515   1.962       .  S
Zn49         O57   2.019       .  S
Zn49         O60   2.022       .  S
Zn49        O286   2.016       .  S
Zn50         O51   1.960       .  S
Zn50         O61   2.019   1_655  S
Zn50         O62   2.020   1_655  S
Zn50        O522   2.011       .  S
O51        Zn279   1.960   1_655  S
O51        Zn513   1.962       .  S
O52          C64   1.271       .  A
O53          C65   1.272   1_455  A
O54        Zn281   2.016   1_545  S
O54          C66   1.272       .  A
O55        Zn280   2.022       .  S
O55          C64   1.273       .  A
O56        Zn511   2.018       .  S
O56          C66   1.272       .  A
O57         C529   1.272       .  A
O58        Zn514   2.011       .  S
O58          C67   1.271       .  A
O59          C68   1.272       .  A
O60          C67   1.273       .  A
O61          C68   1.272       .  A
O62          C69   1.272   1_455  A
O63         C301   1.272   1_545  A
C64         C210   1.434       .  S
C65         O521   1.272       .  A
C65         C669   1.435       .  S
C66         C212   1.435       .  S
C67         C216   1.434       .  S
C68         C213   1.435       .  S
C69         O295   1.272       .  A
C69         C217   1.437       .  S
C70          C72   1.533       .  S
C70          C74   1.533       .  S
C70          C73   1.532       .  S
C70         C209   1.468       .  S
C71          C75   1.533       .  S
C71          C77   1.533       .  S
C71          C76   1.532       .  S
C71         C215   1.468       .  S
C72          C80   1.380       .  A
C72          C75   1.404       .  A
C73          C84   1.377       .  A
C73          C76   1.390       .  A
C74          C88   1.381       .  A
C74          C77   1.404       .  A
C75          C78   1.381       .  A
C76          C82   1.377       .  A
C77          C85   1.380       .  A
C78          N79   1.351       .  A
C78          H91   1.083       .  S
N79          C80   1.351       .  A
N79         C211   1.401       .  S
C80          H81   1.083       .  S
C82          N83   1.357       .  A
C82          H92   1.083       .  S
N83          C84   1.357       .  A
N83         C224   1.403       .  S
C84          H90   1.083       .  S
C85          N86   1.350       .  A
C85          H87   1.083       .  S
N86          C88   1.351       .  A
N86         C214   1.401       .  S
C88          H89   1.083       .  S
Zn93        O561   1.960   1_455  S
Zn93        O102   2.019       .  S
Zn93        O109   2.019       .  S
Zn93        O330   2.012       .  S
Zn94        O329   1.962   1_545  S
Zn94         O99   2.019       .  S
Zn94        O105   2.016       .  S
Zn94        O565   2.021       .  S
Zn95         O97   1.962       .  S
Zn95        O103   2.018       .  S
Zn95        O106   2.021       .  S
Zn95        O564   2.016       .  S
Zn96         O97   1.961       .  S
Zn96        O104   2.012       .  S
Zn96        O108   2.020       .  S
Zn96        O339   2.019       .  S
O97        Zn557   1.960       .  S
O97        Zn326   1.962       .  S
O98        Zn325   2.012       .  S
O98         C110   1.271       .  A
O99         C343   1.272   1_545  A
O100       Zn559   2.016   1_455  S
O100        C112   1.272       .  A
O101       Zn558   2.021       .  S
O101        C110   1.273       .  A
O102        C112   1.272       .  A
O103        C111   1.272       .  A
O104        C113   1.271       .  A
O105        C114   1.272       .  A
O106        C113   1.273       .  A
O107       Zn328   2.019   1_545  S
O107        C114   1.272       .  A
O108        C115   1.272       .  A
O109        C579   1.272   1_455  A
C110        C197   1.434       .  S
C111        O331   1.272       .  A
C111        C208   1.435       .  S
C112        C199   1.435       .  S
C113        C203   1.434       .  S
C114        C201   1.435       .  S
C115        O573   1.272       .  A
C115        C195   1.437       .  S
C116        C118   1.533       .  S
C116        C120   1.533       .  S
C116        C119   1.532       .  S
C116        C198   1.468       .  S
C117        C121   1.533       .  S
C117        C123   1.533       .  S
C117        C122   1.532       .  S
C117        C204   1.468       .  S
C118        C126   1.381       .  A
C118        C121   1.404       .  A
C119        C130   1.377       .  A
C119        C122   1.390       .  A
C120        C134   1.381       .  A
C120        C123   1.404       .  A
C121        C124   1.381       .  A
C122        C128   1.377       .  A
C123        C131   1.381       .  A
C124        N125   1.351       .  A
C124        H137   1.083       .  S
N125        C126   1.351       .  A
N125        C200   1.401       .  S
C126        H127   1.083       .  S
C128        N129   1.357       .  A
C128        H138   1.083       .  S
N129        C130   1.357       .  A
N129        C193   1.403       .  S
C130        H136   1.083       .  S
C131        N132   1.351       .  A
C131        H133   1.083       .  S
N132        C134   1.351       .  A
N132        C202   1.401       .  S
C134        H135   1.083       .  S
C139        C142   1.532       .  S
C139        C605   1.533       .  S
C139        C375   1.533       .  S
C139        C192   1.468       .  S
C140        C145   1.532       .  S
C140        C376   1.533   1_545  S
C140        C610   1.533   1_455  S
C140        C186   1.468       .  S
C141        C603   1.533   1_455  S
C141        C149   1.381       .  A
C141        C144   1.404       .  A
C142        C153   1.377       .  A
C142        C841   1.390       .  A
C143        C371   1.533   1_545  S
C143        C157   1.381       .  A
C143        C146   1.404       .  A
C144        C372   1.533       .  S
C144        C147   1.381       .  A
C145        C151   1.377       .  A
C145        C838   1.390   1_445  A
C146        C604   1.533       .  S
C146        C154   1.381       .  A
C147        N148   1.351       .  A
C147        H160   1.083       .  S
N148        C149   1.351       .  A
N148        C188   1.401       .  S
C149        H150   1.083       .  S
C151        N848   1.357   1_445  A
C151        H161   1.083       .  S
N152        C153   1.357       .  A
N152        C847   1.357       .  A
N152        C196   1.403       .  S
C153        H159   1.083       .  S
C154        N155   1.351       .  A
C154        H156   1.083       .  S
N155        C157   1.351       .  A
N155        C190   1.401       .  S
C157        H158   1.083       .  S
Zn162       O166   1.962       .  S
Zn162       O167   2.016       .  S
Zn162       O171   2.021       .  S
Zn162       O178   2.019       .  S
Zn163       O166   1.960       .  S
Zn163       O168   2.020       .  S
Zn163       O170   2.019       .  S
Zn163       O174   2.012       .  S
Zn164       O166   1.961       .  S
Zn164       O169   2.012       .  S
Zn164       O172   2.020       .  S
Zn164       O175   2.019       .  S
Zn165       O166   1.962       .  S
Zn165       O173   2.016       .  S
Zn165       O176   2.022       .  S
Zn165       O177   2.019       .  S
O167        C179   1.272       .  A
O168        C180   1.272       .  A
O169        C181   1.271       .  A
O170        C179   1.272       .  A
O171        C181   1.273       .  A
O172        C180   1.272       .  A
O173        C182   1.272       .  A
O174        C183   1.271       .  A
O175        C182   1.272       .  A
O176        C183   1.273       .  A
O177        C184   1.272       .  A
O178        C184   1.272       .  A
C179        C187   1.435       .  S
C180        C194   1.437       .  S
C181        C191   1.434       .  S
C182        C189   1.435       .  S
C183        C185   1.434       .  S
C184        C222   1.435       .  S
C185        C186   1.205       .  T
C187        C188   1.206       .  T
C189        C190   1.206       .  T
C191        C192   1.205       .  T
C193        C194   1.207       .  T
C195        C196   1.207       .  T
C197        C198   1.205       .  T
C199        C200   1.206       .  T
C201        C202   1.206       .  T
C203        C204   1.205       .  T
C205        C529   1.435       .  S
C205        C206   1.205       .  T
C206        C207   1.412       .  S
C207        C208   1.205   1_556  T
C209        C210   1.205       .  T
C211        C212   1.206       .  T
C213        C214   1.206       .  T
C215        C216   1.205       .  T
C217        C218   1.207       .  T
C219        C220   1.206       .  T
C220        C221   1.412       .  S
C221        C222   1.206       .  T
C223        C224   1.207       .  T
C225        C226   1.206       .  T
C227        C228   1.206       .  T
C229        C230   1.205       .  T
C231        C232   1.205       .  T
Zn233       O237   1.961       .  S
Zn233       O238   2.019       .  S
Zn233       O242   2.020       .  S
Zn233       O249   2.012       .  S
Zn234       O237   1.962       .  S
Zn234       O239   2.021       .  S
Zn234       O241   2.016       .  S
Zn234       O245   2.019       .  S
Zn235       O237   1.960       .  S
Zn235       O240   2.020       .  S
Zn235       O243   2.012       .  S
Zn235       O246   2.019       .  S
Zn236       O237   1.962       .  S
Zn236       O244   2.016       .  S
Zn236       O247   2.019       .  S
Zn236       O248   2.021       .  S
O238        C250   1.272       .  A
O239        C251   1.273       .  A
O240        C252   1.272       .  A
O241        C250   1.272       .  A
O242        C252   1.272       .  A
O243        C251   1.271       .  A
O244        C253   1.272       .  A
O245        C254   1.272       .  A
O246        C253   1.272       .  A
O247        C254   1.272       .  A
O248        C255   1.273       .  A
O249        C255   1.271       .  A
C250        C459   1.435       .  S
C251        C461   1.434       .  S
C252        C455   1.437       .  S
C253        C458   1.435       .  S
C254        C451   1.435       .  S
C255        C463   1.434       .  S
C256        C724   1.533       .  S
C256        C259   1.532       .  S
C256        C462   1.468       .  S
C257        C725   1.533   1_455  S
C257        C262   1.532       .  S
C257        C464   1.468       .  S
C258        C266   1.381       .  A
C258        C261   1.404       .  A
C259        C270   1.377       .  A
C259        C494   1.390   1_565  A
C260        C720   1.533   1_455  S
C260        C274   1.381       .  A
C260        C263   1.404       .  A
C261        C721   1.533       .  S
C261        C264   1.381       .  A
C262        C491   1.390   1_455  A
C262        C268   1.377       .  A
C263        C271   1.381       .  A
C264        N265   1.351       .  A
C264        H277   1.083       .  S
N265        C266   1.351       .  A
N265        C457   1.401       .  S
C266        H267   1.083       .  S
C268        H278   1.083       .  S
N269        C734   1.357       .  A
N269        C450   1.403       .  S
C270        N733   1.357       .  A
C270        H276   1.083       .  S
C271        N272   1.351       .  A
C271        H273   1.083       .  S
N272        C274   1.351       .  A
N272        C460   1.401       .  S
C274        H275   1.083       .  S
Zn279       O284   2.011       .  S
Zn279       O752   2.018   1_455  S
Zn279       O295   2.019   1_455  S
Zn280       O283   1.962   1_445  S
Zn280       O285   2.019       .  S
Zn280       O291   2.016   1_545  S
Zn281       O747   1.962       .  S
Zn281       O289   2.019       .  S
Zn281       O292   2.022       .  S
Zn282       O283   1.960       .  S
Zn282       O754   2.011       .  S
Zn282       O293   2.019   1_655  S
Zn282       O294   2.020   1_655  S
O283       Zn745   1.962       .  S
O284        C296   1.271       .  A
O285        C297   1.272   1_445  A
O286        C298   1.272       .  A
O287        C296   1.273       .  A
O288       Zn743   2.018       .  S
O288        C298   1.272       .  A
O289        C761   1.272       .  A
O290       Zn746   2.011       .  S
O290        C299   1.271       .  A
O291        C300   1.272       .  A
O292        C299   1.273       .  A
O293        C300   1.272       .  A
O294        C301   1.272   1_455  A
C296        C442   1.434       .  S
C297        O753   1.272       .  A
C297        C901   1.435       .  S
C298        C444   1.435       .  S
C299        C448   1.434       .  S
C300        C445   1.435       .  S
C301        C449   1.437       .  S
C302        C304   1.533       .  S
C302        C306   1.533       .  S
C302        C305   1.532       .  S
C302        C441   1.468       .  S
C303        C307   1.533       .  S
C303        C309   1.533       .  S
C303        C308   1.532       .  S
C303        C447   1.468       .  S
C304        C312   1.380       .  A
C304        C307   1.404       .  A
C305        C316   1.377       .  A
C305        C308   1.390       .  A
C306        C320   1.381       .  A
C306        C309   1.404       .  A
C307        C310   1.381       .  A
C308        C314   1.377       .  A
C309        C317   1.380       .  A
C310        N311   1.351       .  A
C310        H323   1.083       .  S
N311        C312   1.351       .  A
N311        C443   1.401       .  S
C312        H313   1.083       .  S
C314        N315   1.357       .  A
C314        H324   1.083       .  S
N315        C316   1.357       .  A
N315        C456   1.403       .  S
C316        H322   1.083       .  S
C317        N318   1.350       .  A
C317        H319   1.083       .  S
N318        C320   1.351       .  A
N318        C446   1.401       .  S
C320        H321   1.083       .  S
Zn325       O793   1.960   1_445  S
Zn325       O334   2.019   1_545  S
Zn325       O341   2.019   1_545  S
Zn326       O331   2.019       .  S
Zn326       O797   2.021       .  S
Zn326       O337   2.016       .  S
Zn327       O329   1.962       .  S
Zn327       O796   2.016       .  S
Zn327       O335   2.018       .  S
Zn327       O338   2.021       .  S
Zn328       O329   1.961       .  S
Zn328       O336   2.012       .  S
Zn328       O340   2.020   1_565  S
O329       Zn789   1.960   1_565  S
O330        C342   1.271       .  A
O332       Zn791   2.016   1_455  S
O332        C344   1.272       .  A
O333       Zn790   2.021       .  S
O333        C342   1.273       .  A
O334        C344   1.272       .  A
O335        C343   1.272       .  A
O336        C345   1.271       .  A
O337        C346   1.272       .  A
O338        C345   1.273       .  A
O339        C346   1.272       .  A
O340        C347   1.272   1_545  A
O341        C811   1.272   1_455  A
C342        C429   1.434       .  S
C343        C440   1.435       .  S
C344        C431   1.435       .  S
C345        C435   1.434       .  S
C346        C433   1.435       .  S
C347        O805   1.272       .  A
C347        C427   1.437       .  S
C348        C350   1.533       .  S
C348        C352   1.533       .  S
C348        C351   1.532       .  S
C348        C430   1.468       .  S
C349        C353   1.533       .  S
C349        C355   1.533       .  S
C349        C354   1.532       .  S
C349        C436   1.468       .  S
C350        C358   1.381       .  A
C350        C353   1.404       .  A
C351        C362   1.377       .  A
C351        C354   1.390       .  A
C352        C366   1.381       .  A
C352        C355   1.404       .  A
C353        C356   1.381       .  A
C354        C360   1.377       .  A
C355        C363   1.381       .  A
C356        N357   1.351       .  A
C356        H369   1.083       .  S
N357        C358   1.351       .  A
N357        C432   1.401       .  S
C358        H359   1.083       .  S
C360        N361   1.357       .  A
C360        H370   1.083       .  S
N361        C362   1.357       .  A
N361        C425   1.403       .  S
C362        H368   1.083       .  S
C363        N364   1.351       .  A
C363        H365   1.083       .  S
N364        C366   1.351       .  A
N364        C434   1.401       .  S
C366        H367   1.083       .  S
C371        C837   1.533       .  S
C371        C374   1.532       .  S
C371        C424   1.468       .  S
C372        C842   1.533   1_455  S
C372        C377   1.532       .  S
C372        C418   1.468       .  S
C373        C835   1.533   1_455  S
C373        C381   1.381       .  A
C373        C376   1.404       .  A
C374        C385   1.377       .  A
C374        C609   1.390   1_565  A
C375        C389   1.381       .  A
C375        C378   1.404       .  A
C376        C379   1.381       .  A
C377        C606   1.390   1_455  A
C377        C383   1.377       .  A
C378        C836   1.533       .  S
C378        C386   1.381       .  A
C379        N380   1.351       .  A
C379        H392   1.083       .  S
N380        C381   1.351       .  A
N380        C420   1.401       .  S
C381        H382   1.083       .  S
C383        N616   1.357   1_455  A
C383        H393   1.083       .  S
N384        C615   1.357   1_565  A
N384        C385   1.357       .  A
N384        C428   1.403       .  S
C385        H391   1.083       .  S
C386        N387   1.351       .  A
C386        H388   1.083       .  S
N387        C389   1.351       .  A
N387        C422   1.401       .  S
C389        H390   1.083       .  S
Zn394       O398   1.962       .  S
Zn394       O399   2.016       .  S
Zn394       O403   2.021       .  S
Zn394       O410   2.019       .  S
Zn395       O398   1.960       .  S
Zn395       O400   2.020       .  S
Zn395       O402   2.019       .  S
Zn395       O406   2.012       .  S
Zn396       O398   1.961       .  S
Zn396       O401   2.012       .  S
Zn396       O404   2.020       .  S
Zn396       O407   2.019       .  S
Zn397       O398   1.962       .  S
Zn397       O405   2.016       .  S
Zn397       O408   2.022       .  S
Zn397       O409   2.019       .  S
O399        C411   1.272       .  A
O400        C412   1.272       .  A
O401        C413   1.271       .  A
O402        C411   1.272       .  A
O403        C413   1.273       .  A
O404        C412   1.272       .  A
O405        C414   1.272       .  A
O406        C415   1.271       .  A
O407        C414   1.272       .  A
O408        C415   1.273       .  A
O409        C416   1.272       .  A
O410        C416   1.272       .  A
C411        C419   1.435       .  S
C412        C426   1.437       .  S
C413        C423   1.434       .  S
C414        C421   1.435       .  S
C415        C417   1.434       .  S
C416        C454   1.435       .  S
C417        C418   1.205       .  T
C419        C420   1.206       .  T
C421        C422   1.206       .  T
C423        C424   1.205       .  T
C425        C426   1.207       .  T
C427        C428   1.207       .  T
C429        C430   1.205       .  T
C431        C432   1.206       .  T
C433        C434   1.206       .  T
C435        C436   1.205       .  T
C437        C761   1.435       .  S
C437        C438   1.205       .  T
C438        C439   1.412       .  S
C439        C440   1.205   1_556  T
C441        C442   1.205       .  T
C443        C444   1.206       .  T
C445        C446   1.206       .  T
C447        C448   1.205       .  T
C449        C450   1.207       .  T
C451        C452   1.206       .  T
C452        C453   1.412       .  S
C453        C454   1.206       .  T
C455        C456   1.207       .  T
C457        C458   1.206       .  T
C459        C460   1.206       .  T
C461        C462   1.205       .  T
C463        C464   1.205       .  T
Zn465       O469   1.961       .  S
Zn465       O470   2.019       .  S
Zn465       O474   2.020       .  S
Zn465       O481   2.012       .  S
Zn466       O469   1.962       .  S
Zn466       O471   2.021       .  S
Zn466       O473   2.016       .  S
Zn466       O477   2.019       .  S
Zn467       O469   1.960       .  S
Zn467       O472   2.020       .  S
Zn467       O475   2.012       .  S
Zn467       O478   2.019       .  S
Zn468       O469   1.962       .  S
Zn468       O476   2.016       .  S
Zn468       O479   2.019       .  S
Zn468       O480   2.021       .  S
O470        C482   1.272       .  A
O471        C483   1.273       .  A
O472        C484   1.272       .  A
O473        C482   1.272       .  A
O474        C484   1.272       .  A
O475        C483   1.271       .  A
O476        C485   1.272       .  A
O477        C486   1.272       .  A
O478        C485   1.272       .  A
O479        C486   1.272       .  A
O480        C487   1.273       .  A
O481        C487   1.271       .  A
C482        C691   1.435       .  S
C483        C693   1.434       .  S
C484        C687   1.437       .  S
C485        C690   1.435       .  S
C486        C683   1.435       .  S
C487        C695   1.434       .  S
C488        C722   1.533       .  S
C488        C491   1.532       .  S
C488        C694   1.468       .  S
C489        C727   1.533   1_545  S
C489        C494   1.532       .  S
C489        C696   1.468       .  S
C490        C720   1.533   1_545  S
C490        C498   1.381       .  A
C490        C493   1.404       .  A
C491        C502   1.377       .  A
C492        C506   1.381       .  A
C492        C495   1.404       .  A
C493        C496   1.381       .  A
C494        C500   1.377       .  A
C495        C721   1.533       .  S
C495        C503   1.381       .  A
C496        N497   1.351       .  A
C496        H509   1.083       .  S
N497        C498   1.351       .  A
N497        C689   1.401       .  S
C498        H499   1.083       .  S
C500        N733   1.357   1_545  A
C500        H510   1.083       .  S
N501        C732   1.357       .  A
N501        C682   1.403       .  S
C502        H508   1.083       .  S
C503        N504   1.351       .  A
C503        H505   1.083       .  S
N504        C506   1.351       .  A
N504        C692   1.401       .  S
C506        H507   1.083       .  S
Zn511       O747   1.960   1_545  S
Zn511       O516   2.011       .  S
Zn511       O527   2.019       .  S
Zn512       O515   1.962       .  S
Zn512       O517   2.019       .  S
Zn512       O751   2.022       .  S
Zn512       O523   2.016       .  S
Zn513       O750   2.016       .  S
Zn513       O521   2.019       .  S
Zn513       O524   2.022       .  S
Zn514       O515   1.960       .  S
Zn514       O525   2.019       .  S
Zn514       O526   2.020       .  S
O515       Zn743   1.960       .  S
O516        C528   1.271       .  A
O517        C529   1.272       .  A
O518       Zn745   2.016   1_545  S
O518        C530   1.272       .  A
O519       Zn744   2.022       .  S
O519        C528   1.273       .  A
O520        C530   1.272       .  A
O522        C531   1.271       .  A
O523        C532   1.272       .  A
O524        C531   1.273       .  A
O525        C532   1.272       .  A
O526        C533   1.272       .  A
O527        C765   1.272   1_545  A
C528        C674   1.434       .  S
C530        C676   1.435       .  S
C531        C680   1.434       .  S
C532        C677   1.435       .  S
C533        O759   1.272       .  A
C533        C681   1.437       .  S
C534        C536   1.533       .  S
C534        C538   1.533       .  S
C534        C537   1.532       .  S
C534        C673   1.468       .  S
C535        C539   1.533       .  S
C535        C541   1.533       .  S
C535        C540   1.532       .  S
C535        C679   1.468       .  S
C536        C544   1.380       .  A
C536        C539   1.404       .  A
C537        C548   1.377       .  A
C537        C540   1.390       .  A
C538        C552   1.381       .  A
C538        C541   1.404       .  A
C539        C542   1.381       .  A
C540        C546   1.377       .  A
C541        C549   1.380       .  A
C542        N543   1.351       .  A
C542        H555   1.083       .  S
N543        C544   1.351       .  A
N543        C675   1.401       .  S
C544        H545   1.083       .  S
C546        N547   1.357       .  A
C546        H556   1.083       .  S
N547        C548   1.357       .  A
N547        C688   1.403       .  S
C548        H554   1.083       .  S
C549        N550   1.350       .  A
C549        H551   1.083       .  S
N550        C552   1.351       .  A
N550        C678   1.401       .  S
C552        H553   1.083       .  S
Zn557       O794   2.012       .  S
Zn557       O566   2.019       .  S
Zn557       O573   2.019       .  S
Zn558       O793   1.962   1_445  S
Zn558       O563   2.019       .  S
Zn558       O569   2.016   1_455  S
Zn559       O561   1.962       .  S
Zn559       O567   2.018       .  S
Zn559       O570   2.021       .  S
Zn560       O561   1.961       .  S
Zn560       O568   2.012       .  S
Zn560       O803   2.019       .  S
Zn560       O572   2.020       .  S
O561       Zn790   1.962   1_655  S
O562       Zn789   2.012       .  S
O562        C574   1.271       .  A
O563        C807   1.272   1_445  A
O564        C576   1.272       .  A
O565        C574   1.273       .  A
O566        C576   1.272       .  A
O567        C575   1.272       .  A
O568        C577   1.271       .  A
O569        C578   1.272       .  A
O570        C577   1.273       .  A
O571       Zn792   2.019   1_545  S
O571        C578   1.272       .  A
O572        C579   1.272       .  A
C574        C661   1.434       .  S
C575        O795   1.272   1_655  A
C575        C672   1.435       .  S
C576        C663   1.435       .  S
C577        C667   1.434       .  S
C578        C665   1.435       .  S
C579        C659   1.437       .  S
C580        C582   1.533       .  S
C580        C584   1.533       .  S
C580        C583   1.532       .  S
C580        C662   1.468       .  S
C581        C585   1.533       .  S
C581        C587   1.533       .  S
C581        C586   1.532       .  S
C581        C668   1.468       .  S
C582        C590   1.381       .  A
C582        C585   1.404       .  A
C583        C594   1.377       .  A
C583        C586   1.390       .  A
C584        C598   1.381       .  A
C584        C587   1.404       .  A
C585        C588   1.381       .  A
C586        C592   1.377       .  A
C587        C595   1.381       .  A
C588        N589   1.351       .  A
C588        H601   1.083       .  S
N589        C590   1.351       .  A
N589        C664   1.401       .  S
C590        H591   1.083       .  S
C592        N593   1.357       .  A
C592        H602   1.083       .  S
N593        C594   1.357       .  A
N593        C657   1.403       .  S
C594        H600   1.083       .  S
C595        N596   1.351       .  A
C595        H597   1.083       .  S
N596        C598   1.351       .  A
N596        C666   1.401       .  S
C598        H599   1.083       .  S
C603        C839   1.533       .  S
C603        C606   1.532       .  S
C603        C656   1.468       .  S
C604        C840   1.533   1_545  S
C604        C609   1.532       .  S
C604        C650   1.468       .  S
C605        C613   1.381       .  A
C605        C608   1.404       .  A
C606        C617   1.377       .  A
C607        C835   1.533   1_545  S
C607        C621   1.381       .  A
C607        C610   1.404       .  A
C608        C836   1.533       .  S
C608        C611   1.381       .  A
C609        C615   1.377       .  A
C610        C618   1.381       .  A
C611        N612   1.351       .  A
C611        H624   1.083       .  S
N612        C613   1.351       .  A
N612        C652   1.401       .  S
C613        H614   1.083       .  S
C615        H625   1.083       .  S
N616        C617   1.357       .  A
N616        C660   1.403       .  S
C617        H623   1.083       .  S
C618        N619   1.351       .  A
C618        H620   1.083       .  S
N619        C621   1.351       .  A
N619        C654   1.401       .  S
C621        H622   1.083       .  S
Zn626       O630   1.962       .  S
Zn626       O631   2.016       .  S
Zn626       O635   2.021       .  S
Zn626       O642   2.019       .  S
Zn627       O630   1.960       .  S
Zn627       O632   2.020       .  S
Zn627       O634   2.019       .  S
Zn627       O638   2.012       .  S
Zn628       O630   1.961       .  S
Zn628       O633   2.012       .  S
Zn628       O636   2.020       .  S
Zn628       O639   2.019       .  S
Zn629       O630   1.962       .  S
Zn629       O637   2.016       .  S
Zn629       O640   2.022       .  S
Zn629       O641   2.019       .  S
O631        C643   1.272       .  A
O632        C644   1.272       .  A
O633        C645   1.271       .  A
O634        C643   1.272       .  A
O635        C645   1.273       .  A
O636        C644   1.272       .  A
O637        C646   1.272       .  A
O638        C647   1.271       .  A
O639        C646   1.272       .  A
O640        C647   1.273       .  A
O641        C648   1.272       .  A
O642        C648   1.272       .  A
C643        C651   1.435       .  S
C644        C658   1.437       .  S
C645        C655   1.434       .  S
C646        C653   1.435       .  S
C647        C649   1.434       .  S
C648        C686   1.435       .  S
C649        C650   1.205       .  T
C651        C652   1.206       .  T
C653        C654   1.206       .  T
C655        C656   1.205       .  T
C657        C658   1.207       .  T
C659        C660   1.207       .  T
C661        C662   1.205       .  T
C663        C664   1.206       .  T
C665        C666   1.206       .  T
C667        C668   1.205       .  T
C669        C670   1.205       .  T
C670        C671   1.412       .  S
C671        C672   1.205   1_556  T
C673        C674   1.205       .  T
C675        C676   1.206       .  T
C677        C678   1.206       .  T
C679        C680   1.205       .  T
C681        C682   1.207       .  T
C683        C684   1.206       .  T
C684        C685   1.412       .  S
C685        C686   1.206       .  T
C687        C688   1.207       .  T
C689        C690   1.206       .  T
C691        C692   1.206       .  T
C693        C694   1.205       .  T
C695        C696   1.205       .  T
Zn697       O701   1.961       .  S
Zn697       O702   2.019       .  S
Zn697       O706   2.020       .  S
Zn697       O713   2.012       .  S
Zn698       O701   1.962       .  S
Zn698       O703   2.021       .  S
Zn698       O705   2.016       .  S
Zn698       O709   2.019       .  S
Zn699       O701   1.960       .  S
Zn699       O704   2.020       .  S
Zn699       O707   2.012       .  S
Zn699       O710   2.019       .  S
Zn700       O701   1.962       .  S
Zn700       O708   2.016       .  S
Zn700       O711   2.019       .  S
Zn700       O712   2.021       .  S
O702        C714   1.272       .  A
O703        C715   1.273       .  A
O704        C716   1.272       .  A
O705        C714   1.272       .  A
O706        C716   1.272       .  A
O707        C715   1.271       .  A
O708        C717   1.272       .  A
O709        C718   1.272       .  A
O710        C717   1.272       .  A
O711        C718   1.272       .  A
O712        C719   1.273       .  A
O713        C719   1.271       .  A
C714        C923   1.435       .  S
C715        C925   1.434       .  S
C716        C919   1.437       .  S
C717        C922   1.435       .  S
C718        C915   1.435       .  S
C719        C927   1.434       .  S
C720        C723   1.532       .  S
C720        C926   1.468       .  S
C721        C726   1.532       .  S
C721        C928   1.468       .  S
C722        C730   1.381       .  A
C722        C725   1.404       .  A
C723        C734   1.377       .  A
C724        C738   1.381       .  A
C724        C727   1.404       .  A
C725        C728   1.381       .  A
C726        C732   1.377       .  A
C727        C735   1.381       .  A
C728        N729   1.351       .  A
C728        H741   1.083       .  S
N729        C730   1.351       .  A
N729        C921   1.401       .  S
C730        H731   1.083       .  S
C732        H742   1.083       .  S
N733        C914   1.403       .  S
C734        H740   1.083       .  S
C735        N736   1.351       .  A
C735        H737   1.083       .  S
N736        C738   1.351       .  A
N736        C924   1.401       .  S
C738        H739   1.083       .  S
Zn743       O748   2.011       .  S
Zn743       O759   2.019       .  S
Zn744       O747   1.962   1_545  S
Zn744       O749   2.019       .  S
Zn744       O755   2.016   1_545  S
Zn745       O753   2.019       .  S
Zn745       O756   2.022       .  S
Zn746       O747   1.960       .  S
Zn746       O757   2.019       .  S
Zn746       O758   2.020       .  S
O748        C760   1.271       .  A
O749        C761   1.272   1_545  A
O750        C762   1.272       .  A
O751        C760   1.273       .  A
O752        C762   1.272       .  A
O754        C763   1.271       .  A
O755        C764   1.272       .  A
O756        C763   1.273       .  A
O757        C764   1.272       .  A
O758        C765   1.272       .  A
C760        C906   1.434       .  S
C762        C908   1.435       .  S
C763        C912   1.434       .  S
C764        C909   1.435       .  S
C765        C913   1.437       .  S
C766        C768   1.533       .  S
C766        C770   1.533       .  S
C766        C769   1.532       .  S
C766        C905   1.468       .  S
C767        C771   1.533       .  S
C767        C773   1.533       .  S
C767        C772   1.532       .  S
C767        C911   1.468       .  S
C768        C776   1.380       .  A
C768        C771   1.404       .  A
C769        C780   1.377       .  A
C769        C772   1.390       .  A
C770        C784   1.381       .  A
C770        C773   1.404       .  A
C771        C774   1.381       .  A
C772        C778   1.377       .  A
C773        C781   1.380       .  A
C774        N775   1.351       .  A
C774        H787   1.083       .  S
N775        C776   1.351       .  A
N775        C907   1.401       .  S
C776        H777   1.083       .  S
C778        N779   1.357       .  A
C778        H788   1.083       .  S
N779        C780   1.357       .  A
N779        C920   1.403       .  S
C780        H786   1.083       .  S
C781        N782   1.350       .  A
C781        H783   1.083       .  S
N782        C784   1.351       .  A
N782        C910   1.401       .  S
C784        H785   1.083       .  S
Zn789       O798   2.019   1_545  S
Zn789       O805   2.019   1_545  S
Zn790       O795   2.019       .  S
Zn790       O801   2.016   1_455  S
Zn791       O793   1.962       .  S
Zn791       O799   2.018       .  S
Zn791       O802   2.021       .  S
Zn792       O793   1.961       .  S
Zn792       O800   2.012       .  S
Zn792       O804   2.020   1_565  S
O794        C806   1.271       .  A
O796        C808   1.272       .  A
O797        C806   1.273       .  A
O798        C808   1.272       .  A
O799        C807   1.272       .  A
O800        C809   1.271       .  A
O801        C810   1.272       .  A
O802        C809   1.273       .  A
O803        C810   1.272       .  A
O804        C811   1.272   1_545  A
C806        C893   1.434       .  S
C807        C904   1.435       .  S
C808        C895   1.435       .  S
C809        C899   1.434       .  S
C810        C897   1.435       .  S
C811        C891   1.437       .  S
C812        C814   1.533       .  S
C812        C816   1.533       .  S
C812        C815   1.532       .  S
C812        C894   1.468       .  S
C813        C817   1.533       .  S
C813        C819   1.533       .  S
C813        C818   1.532       .  S
C813        C900   1.468       .  S
C814        C822   1.381       .  A
C814        C817   1.404       .  A
C815        C826   1.377       .  A
C815        C818   1.390       .  A
C816        C830   1.381       .  A
C816        C819   1.404       .  A
C817        C820   1.381       .  A
C818        C824   1.377       .  A
C819        C827   1.381       .  A
C820        N821   1.351       .  A
C820        H833   1.083       .  S
N821        C822   1.351       .  A
N821        C896   1.401       .  S
C822        H823   1.083       .  S
C824        N825   1.357       .  A
C824        H834   1.083       .  S
N825        C826   1.357       .  A
N825        C889   1.403       .  S
C826        H832   1.083       .  S
C827        N828   1.351       .  A
C827        H829   1.083       .  S
N828        C830   1.351       .  A
N828        C898   1.401       .  S
C830        H831   1.083       .  S
C835        C838   1.532       .  S
C835        C888   1.468       .  S
C836        C841   1.532       .  S
C836        C882   1.468       .  S
C837        C845   1.381       .  A
C837        C840   1.404       .  A
C838        C849   1.377       .  A
C839        C853   1.381       .  A
C839        C842   1.404       .  A
C840        C843   1.381       .  A
C841        C847   1.377       .  A
C842        C850   1.381       .  A
C843        N844   1.351       .  A
C843        H856   1.083       .  S
N844        C845   1.351       .  A
N844        C884   1.401       .  S
C845        H846   1.083       .  S
C847        H857   1.083       .  S
N848        C849   1.357       .  A
N848        C892   1.403       .  S
C849        H855   1.083       .  S
C850        N851   1.351       .  A
C850        H852   1.083       .  S
N851        C853   1.351       .  A
N851        C886   1.401       .  S
C853        H854   1.083       .  S
Zn858       O862   1.962       .  S
Zn858       O863   2.016       .  S
Zn858       O867   2.021       .  S
Zn858       O874   2.019       .  S
Zn859       O862   1.960       .  S
Zn859       O864   2.020       .  S
Zn859       O866   2.019       .  S
Zn859       O870   2.012       .  S
Zn860       O862   1.961       .  S
Zn860       O865   2.012       .  S
Zn860       O868   2.020       .  S
Zn860       O871   2.019       .  S
Zn861       O862   1.962       .  S
Zn861       O869   2.016       .  S
Zn861       O872   2.022       .  S
Zn861       O873   2.019       .  S
O863        C875   1.272       .  A
O864        C876   1.272       .  A
O865        C877   1.271       .  A
O866        C875   1.272       .  A
O867        C877   1.273       .  A
O868        C876   1.272       .  A
O869        C878   1.272       .  A
O870        C879   1.271       .  A
O871        C878   1.272       .  A
O872        C879   1.273       .  A
O873        C880   1.272       .  A
O874        C880   1.272       .  A
C875        C883   1.435       .  S
C876        C890   1.437       .  S
C877        C887   1.434       .  S
C878        C885   1.435       .  S
C879        C881   1.434       .  S
C880        C918   1.435       .  S
C881        C882   1.205       .  T
C883        C884   1.206       .  T
C885        C886   1.206       .  T
C887        C888   1.205       .  T
C889        C890   1.207       .  T
C891        C892   1.207       .  T
C893        C894   1.205       .  T
C895        C896   1.206       .  T
C897        C898   1.206       .  T
C899        C900   1.205       .  T
C901        C902   1.205       .  T
C902        C903   1.412       .  S
C903        C904   1.205   1_556  T
C905        C906   1.205       .  T
C907        C908   1.206       .  T
C909        C910   1.206       .  T
C911        C912   1.205       .  T
C913        C914   1.207       .  T
C915        C916   1.206       .  T
C916        C917   1.412       .  S
C917        C918   1.206       .  T
C919        C920   1.207       .  T
C921        C922   1.206       .  T
C923        C924   1.206       .  T
C925        C926   1.205       .  T
C927        C928   1.205       .  T
