geometry optimzed in LAMMPS
_audit_creation_date              2020-11-30 
_audit_creation_method            'lammps2cif' 
_symmetry_space_group_name_H-M    'P1' 
_symmetry_Int_Tables_number       1 
_symmetry_cell_setting            triclinic 
loop_ 
_symmetry_equiv_pos_as_xyz 
  x,y,z 
_cell_length_a                    22.26094695 
_cell_length_b                    22.392243566806243 
_cell_length_c                    66.65517363452051 
_cell_angle_alpha                 89.70905565055452 
_cell_angle_beta                  90.41134443462799 
_cell_angle_gamma                 90.52938686053174 
loop_ 
_atom_site_label 
_atom_site_type_symbol 
_atom_site_fract_x 
_atom_site_fract_y 
_atom_site_fract_z 
_atom_site_charge 
O1          O  0.23636873  0.57672183  0.80081942    -0.56500
C2          C  0.28480901  0.74533558  0.79102346     0.76100
O3          O  0.11348371  0.70546787  0.83198482    -0.57700
C4          C  0.21724773  0.54389364  0.81499662     0.76100
C5          C  0.26209675  0.70127725  0.85794100     0.78500
Cd6        Cd  0.21231026  0.67347468  0.81879916     1.37500
O7          O  0.30734539  0.70533503  0.80214620    -0.56500
O8          O  0.26330209  0.64983242  0.85028267    -0.55300
C9          C  0.08321967  0.68799422  0.81695288     0.78400
O10         O  0.23758609  0.74182471  0.84749392    -0.57700
O11         O  0.22855128  0.75186235  0.79226340    -0.56100
O12         O  0.19731259  0.57064408  0.83013501    -0.56100
O13         O  0.11268296  0.66837554  0.80227457    -0.55300
O14         O  0.37831650  0.77376724  0.77598571    -0.56500
C15         C  0.52660100  0.83654064  0.74716798     0.76100
O16         O  0.36112790  0.83812101  0.71228909    -0.57700
C17         C  0.32220425  0.78140889  0.77719240     0.76100
C18         C  0.38166803  0.97323177  0.75105290     0.78500
Cd19       Cd  0.39632086  0.84501093  0.74792665     1.37500
O20         O  0.49771596  0.82695755  0.76316522    -0.56500
O21         O  0.40600748  0.94311895  0.76496099    -0.55300
C22         C  0.35853836  0.78164607  0.71236870     0.78400
O23         O  0.36046765  0.94403130  0.73639549    -0.57700
O24         O  0.49567462  0.84775293  0.73167216    -0.56100
O25         O  0.30015096  0.82090215  0.76570369    -0.56100
O26         O  0.37352841  0.75582039  0.72851616    -0.55300
C27         C  0.55704274  0.71202325  0.96304931    -0.01200
C28         C  0.33196311  0.49323418  0.60497115    -0.01200
O29         O  0.30767727  0.32658919  0.79745082    -0.56500
C30         C  0.21754677  0.47807496  0.81463583     0.76100
O31         O  0.11833436  0.31116509  0.82909770    -0.57700
C32         C  0.28955632  0.27619217  0.79127754     0.76100
C33         C  0.26935237  0.33043333  0.85663707     0.78500
Cd34       Cd  0.21661514  0.34883083  0.81754911     1.37500
O35         O  0.23795893  0.44760560  0.80022192    -0.56500
O36         O  0.27375933  0.37838180  0.84675556    -0.55300
C37         C  0.08847418  0.33037617  0.81422779     0.78400
O38         O  0.24010317  0.28823104  0.84845936    -0.57700
O39         O  0.19693397  0.44899464  0.82938385    -0.56100
O40         O  0.23759732  0.26003390  0.79671364    -0.56100
O41         O  0.11811984  0.35418015  0.80010801    -0.55300
O42         O  0.49462176  0.13916245  0.76281183    -0.56500
C43         C  0.32630202  0.23868107  0.77818437     0.76100
O44         O  0.32123968  0.19883507  0.72352752    -0.57700
C45         C  0.52405694  0.17918895  0.75360702     0.76100
C46         C  0.38127100  0.03890124  0.75132553     0.78500
Cd47       Cd  0.39452862  0.16775380  0.74993980     1.37500
O48         O  0.37849618  0.25416395  0.77276937    -0.56500
O49         O  0.40041654  0.06817141  0.76627376    -0.55300
C50         C  0.36032736  0.20750537  0.71013132     0.78400
O51         O  0.36471706  0.06906455  0.73620326    -0.57700
O52         O  0.30689737  0.18943872  0.77148763    -0.56100
O53         O  0.49363616  0.21736278  0.74392844    -0.56100
O54         O  0.41408388  0.19636024  0.71498897    -0.55300
C55         C  0.56084027  0.27804648  0.96299466    -0.01200
O56         O  0.81049981  0.69011544  0.79320156    -0.56500
C57         C  0.88001079  0.53914709  0.81759963     0.76100
O58         O  0.98719706  0.70253297  0.83207924    -0.57700
C59         C  0.82826159  0.74203882  0.78847491     0.76100
C60         C  0.81981056  0.71185392  0.85188143     0.78500
Cd61       Cd  0.88836840  0.66933471  0.81840547     1.37500
O62         O  0.87888909  0.56987643  0.80163041    -0.56500
O63         O  0.79680019  0.68932424  0.83627011    -0.55300
C64         C  0.01717590  0.68661008  0.81697125     0.78400
O65         O  0.87667140  0.71375528  0.85276558    -0.57700
O66         O  0.88319512  0.56809046  0.83381783    -0.56100
O67         O  0.87648320  0.76017763  0.79667832    -0.56100
O68         O  0.98756763  0.66603878  0.80223555    -0.55300
O69         O  0.73907982  0.76632454  0.77060096    -0.56500
C70         C  0.59263322  0.83651133  0.74651197     0.76100
O71         O  0.74146528  0.94229715  0.73003470    -0.57700
C72         C  0.79350016  0.77873299  0.77431242     0.76100
C73         C  0.76048697  0.77001782  0.71145924     0.78500
Cd74       Cd  0.72281175  0.84214801  0.74468051     1.37500
O75         O  0.62464859  0.82735468  0.76195814    -0.56500
O76         O  0.72756680  0.75183364  0.72557949    -0.55300
C77         C  0.73741700  0.97049642  0.74638343     0.78400
O78         O  0.77551401  0.82473482  0.71170295    -0.57700
O79         O  0.62040469  0.84721483  0.73039660    -0.56100
O80         O  0.81568260  0.82342041  0.76516124    -0.56100
O81         O  0.73134026  0.93931787  0.76215097    -0.55300
C82         C  0.76374585  0.49627385  0.60230984    -0.01200
O83         O  0.88188818  0.44366493  0.80133794    -0.56500
C84         C  0.82696950  0.27302749  0.78861751     0.76100
O85         O  0.99314773  0.30435425  0.82811474    -0.57700
C86         C  0.88031582  0.47329130  0.81743033     0.76100
C87         C  0.84208265  0.30181011  0.85555730     0.78500
Cd88       Cd  0.89373763  0.34366847  0.81796317     1.37500
O89         O  0.81078273  0.32488165  0.79363783    -0.56500
O90         O  0.81658854  0.29404342  0.83874983    -0.55300
C91         C  0.02249416  0.32933560  0.81419142     0.78400
O92         O  0.89265482  0.32800458  0.85521456    -0.57700
O93         O  0.87533783  0.25430401  0.79644245    -0.56100
O94         O  0.88139548  0.44328895  0.83351719    -0.56100
O95         O  0.99221000  0.35693176  0.80105301    -0.55300
O96         O  0.74166593  0.25457118  0.76736999    -0.56500
C97         C  0.59015507  0.17824497  0.75296165     0.76100
O98         O  0.69486179  0.18772181  0.71160950    -0.57700
C99         C  0.79076371  0.23626846  0.77465804     0.76100
C100        C  0.73580782  0.03616167  0.74683922     0.78500
Cd101      Cd  0.71868018  0.16466651  0.74674511     1.37500
O102        O  0.61991145  0.13761899  0.76162156    -0.56500
O103        O  0.72681442  0.06452191  0.76290178    -0.55300
C104        C  0.74694548  0.20500859  0.70670647     0.78400
O105        O  0.73991519  0.06707815  0.73097588    -0.57700
O106        O  0.61997695  0.21540061  0.74263468    -0.56100
O107        O  0.80651424  0.18451984  0.76947466    -0.56100
O108        O  0.78725725  0.20185625  0.72014515    -0.55300
O109        O  0.72411456  0.23698854  0.29007831    -0.56500
C110        C  0.57533717  0.16742557  0.31788888     0.76100
O111        O  0.74373162  0.06396615  0.32937536    -0.57700
C112        C  0.77837035  0.22354711  0.28699615     0.76100
C113        C  0.75231620  0.23401363  0.34920166     0.78500
Cd114      Cd  0.70618435  0.16181456  0.31675437     1.37500
O115        O  0.60349174  0.16864728  0.30146193    -0.56500
O116        O  0.73429264  0.25479123  0.33261756    -0.55300
C117        C  0.72396329  0.03357149  0.31472416     0.78400
O118        O  0.74799282  0.17789178  0.35154317    -0.57700
O119        O  0.60717172  0.16645048  0.33367576    -0.56100
O120        O  0.79795536  0.17811614  0.29625886    -0.56100
O121        O  0.69918117  0.06247637  0.30061502    -0.55300
O122        O  0.79822079  0.30746962  0.26561628    -0.56500
C123        C  0.88089443  0.46121648  0.25453512     0.76100
O124        O  0.99085211  0.31104745  0.23202274    -0.57700
C125        C  0.81697182  0.26009936  0.27379641     0.76100
C126        C  0.85491924  0.30357187  0.20685985     0.78500
Cd127      Cd  0.89222146  0.33293934  0.24728670     1.37500
O128        O  0.92208560  0.43077664  0.26265848    -0.56500
O129        O  0.86655361  0.35656230  0.21221733    -0.55300
C130        C  0.02101097  0.31474000  0.24812897     0.78400
O131        O  0.86259150  0.26328112  0.21997139    -0.57700
O132        O  0.84266554  0.43233487  0.24425040    -0.56100
O133        O  0.87097928  0.24682898  0.27037274    -0.56100
O134        O  0.99167761  0.32400498  0.26399600    -0.55300
C135        C  0.55433062  0.26933997  0.10440920    -0.01200
O136        O  0.47670800  0.16308073  0.30307610    -0.56500
C137        C  0.30914698  0.21593596  0.29236474     0.76100
O138        O  0.33970762  0.04980308  0.33264293    -0.57700
C139        C  0.50918351  0.16447018  0.31870749     0.76100
C140        C  0.33688909  0.19651176  0.35832457     0.78500
Cd141      Cd  0.37903323  0.14772477  0.32101493     1.37500
O142        O  0.35514529  0.23710778  0.30114440    -0.56500
O143        O  0.36889646  0.15016617  0.35815005    -0.55300
C144        C  0.36095317  0.02003330  0.31832944     0.78400
O145        O  0.32334245  0.21871947  0.34144746    -0.57700
O146        O  0.29547568  0.16210532  0.29632427    -0.56100
O147        O  0.48181477  0.16078686  0.33519636    -0.56100
O148        O  0.38552405  0.04952046  0.30434112    -0.55300
O149        O  0.28606835  0.30741330  0.27582646    -0.56500
C150        C  0.22549032  0.45366399  0.24935121     0.76100
O151        O  0.23296074  0.27662235  0.21426008    -0.57700
C152        C  0.27452583  0.25239833  0.27808985     0.76100
C153        C  0.08700383  0.31224192  0.24823082     0.78500
Cd154      Cd  0.21650177  0.32446558  0.24778465     1.37500
O155        O  0.22662071  0.42222020  0.26515095    -0.56500
O156        O  0.11722233  0.32083287  0.26411391    -0.55300
C157        C  0.28960015  0.28197008  0.21534941     0.78400
O158        O  0.11655417  0.30470710  0.23229857    -0.57700
O159        O  0.22235024  0.42572162  0.23293909    -0.56100
O160        O  0.23291878  0.23068124  0.26721268    -0.56100
O161        O  0.31054662  0.30789896  0.23068413    -0.55300
C162        C  0.75968572  0.49797968  0.45989599    -0.01200
O163        O  0.61164479  0.79554756  0.30496601    -0.56500
C164        C  0.78229325  0.76633227  0.29063545     0.76100
O165        O  0.74754565  0.93858212  0.32929792    -0.57700
C166        C  0.58024503  0.83042328  0.31544481     0.76100
C167        C  0.74159564  0.79735673  0.35758758     0.78500
Cd168      Cd  0.71091944  0.83943670  0.31783684     1.37500
O169        O  0.74569231  0.74355736  0.30297597    -0.56500
O170        O  0.68860455  0.79831564  0.35075163    -0.55300
C171        C  0.72583052  0.96778648  0.31468448     0.78400
O172        O  0.78226986  0.81749845  0.34617304    -0.57700
O173        O  0.78434211  0.82286994  0.29004204    -0.56100
O174        O  0.60884787  0.86810353  0.32584730    -0.56100
O175        O  0.70243495  0.93748274  0.30060009    -0.55300
O176        O  0.91989551  0.55615739  0.26527380    -0.56500
C177        C  0.82056347  0.72898045  0.27775347     0.76100
O178        O  0.99381792  0.67707042  0.23534005    -0.57700
C179        C  0.88046255  0.52706658  0.25551089     0.76100
C180        C  0.85015805  0.67849274  0.21084430     0.78500
Cd181      Cd  0.89392534  0.65563534  0.25093589     1.37500
O182        O  0.81697186  0.67254584  0.27778538    -0.56500
O183        O  0.86149275  0.62641840  0.21709246    -0.55300
C184        C  0.02445683  0.66942090  0.25116423     0.78400
O185        O  0.86003102  0.72072269  0.22299427    -0.57700
O186        O  0.85910858  0.75157694  0.26608199    -0.56100
O187        O  0.84341614  0.55759754  0.24535803    -0.56100
O188        O  0.99504237  0.66012329  0.26705940    -0.55300
C189        C  0.56356420  0.69630962  0.10422644    -0.01200
O190        O  0.28159275  0.66409258  0.28066100    -0.56500
C191        C  0.22585171  0.51926150  0.24990942     0.76100
O192        O  0.12070158  0.67681997  0.23517806    -0.57700
C193        C  0.27842154  0.72049848  0.28053754     0.76100
C194        C  0.29817281  0.68565804  0.21801725     0.78500
Cd195      Cd  0.21995343  0.64866961  0.25018397     1.37500
O196        O  0.22908079  0.54803364  0.26617724    -0.56500
O197        O  0.31700891  0.66216408  0.23411560    -0.55300
C198        C  0.09066220  0.66739448  0.25096017     0.78400
O199        O  0.24183124  0.69194496  0.21631899    -0.57700
O200        O  0.22127265  0.54989105  0.23401786    -0.56100
O201        O  0.24523232  0.74378351  0.26718443    -0.56100
O202        O  0.12034393  0.65276370  0.26643089    -0.55300
O203        O  0.35031226  0.73388240  0.30687424    -0.56500
C204        C  0.51410993  0.82822247  0.31645681     0.76100
O205        O  0.34567425  0.92512757  0.33412743    -0.57700
C206        C  0.31315189  0.75703775  0.29478693     0.76100
C207        C  0.36485318  0.77997427  0.36214294     0.78500
Cd208      Cd  0.38446661  0.82843424  0.32232685     1.37500
O209        O  0.48147846  0.79122159  0.30690921    -0.56500
O210        O  0.41529631  0.78262564  0.35365610    -0.55300
C211        C  0.36216570  0.95453178  0.31880538     0.78400
O212        O  0.32092646  0.80160715  0.35246020    -0.57700
O213        O  0.48697747  0.86396403  0.32773569    -0.56100
O214        O  0.30878501  0.81325787  0.29524607    -0.56100
O215        O  0.38428421  0.92506819  0.30454210    -0.55300
C216        C  0.32385484  0.47958695  0.46496073    -0.01200
C217        C  0.37844128  0.69281766  0.41119668     0.17200
C218        C  0.40020707  0.65475275  0.42610409    -0.31800
C219        C  0.35836996  0.62153710  0.43708113     0.21600
C220        C  0.29720761  0.62816985  0.43434817     0.03800
C221        C  0.27496331  0.66841430  0.41979499    -0.21500
C222        C  0.31727351  0.69946710  0.40789029     0.13000
S223        S  0.42326981  0.72772272  0.39423264    -0.05200
C224        C  0.35951283  0.75119981  0.38197498    -0.08600
C225        C  0.30593554  0.73388422  0.39106806    -0.25300
S226        S  0.25519755  0.57764997  0.44782369    -0.02400
C227        C  0.32133999  0.54276528  0.45525758    -0.15900
C228        C  0.37229540  0.57482557  0.44934863    -0.13900
H229        H  0.44798392  0.64761947  0.42793811     0.21500
H230        H  0.22723975  0.67197110  0.41688759     0.17500
H231        H  0.26159988  0.74266608  0.38503398     0.20000
H232        H  0.41831636  0.56235943  0.45223509     0.13400
C233        C  0.42717263  0.72045914  0.18222808     0.18800
C234        C  0.48322153  0.72245331  0.17303682    -0.31800
C235        C  0.48452578  0.72926253  0.15219562     0.21600
C236        C  0.43272941  0.73606878  0.14092942     0.03800
C237        C  0.37622952  0.73661861  0.15024814    -0.21500
C238        C  0.37468611  0.72751283  0.17115805     0.13000
S239        S  0.41683526  0.70256438  0.20678477    -0.05200
C240        C  0.34069295  0.70388165  0.20230244    -0.08600
C241        C  0.32447822  0.71886611  0.18276348    -0.25300
S242        S  0.44456476  0.73385747  0.11562107    -0.02400
C243        C  0.52045413  0.72179633  0.12015576    -0.15900
C244        C  0.53408690  0.72196458  0.14066475    -0.13900
H245        H  0.52397024  0.71465994  0.18160765     0.21500
H246        H  0.33524676  0.73969370  0.14146953     0.17500
H247        H  0.27874398  0.72012072  0.17714498     0.20000
H248        H  0.57672281  0.71022870  0.14736505     0.13400
C249        C  0.71055286  0.65752664  0.13367452     0.17200
C250        C  0.74955322  0.62866516  0.14704424    -0.31800
C251        C  0.77875010  0.66378445  0.16151820     0.21600
C252        C  0.77190412  0.72526035  0.16201729     0.03800
C253        C  0.73579712  0.75448762  0.14780739    -0.21500
C254        C  0.70429555  0.71902355  0.13392105     0.13000
S255        S  0.65960287  0.62135344  0.11887604    -0.05200
C256        C  0.62681754  0.68963757  0.11356845    -0.08600
C257        C  0.65835317  0.73789334  0.12172032    -0.25300
S258        S  0.80326245  0.75867154  0.18259841    -0.02400
C259        C  0.82487965  0.68895664  0.19073270    -0.15900
C260        C  0.80995828  0.64280795  0.17780624    -0.13900
H261        H  0.75254018  0.58042952  0.14738162     0.21500
H262        H  0.72829781  0.80210325  0.14870133     0.17500
H263        H  0.64329426  0.78369287  0.12086640     0.20000
H264        H  0.81782925  0.59596229  0.18085061     0.13400
C265        C  0.59330979  0.44448345  0.45612872     0.17200
C266        C  0.53613633  0.43192642  0.44839757    -0.31800
C267        C  0.48685157  0.44519183  0.46039676     0.21600
C268        C  0.49390940  0.46785373  0.47955742     0.03800
C269        C  0.55140906  0.47940703  0.48748245    -0.21500
C270        C  0.60088386  0.46818028  0.47513953     0.13000
S271        S  0.65731261  0.44035305  0.44256876    -0.05200
C272        C  0.69617055  0.47185781  0.46257057    -0.08600
C273        C  0.65956573  0.48394597  0.47894928    -0.25300
S274        S  0.42805538  0.48666469  0.49074185    -0.02400
C275        C  0.39006909  0.46424535  0.46920538    -0.15900
C276        C  0.42821627  0.44344962  0.45435544    -0.13900
H277        H  0.53019242  0.41593388  0.43319201     0.21500
H278        H  0.55715685  0.49957625  0.50211513     0.17500
H279        H  0.67416480  0.50718336  0.49235428     0.20000
H280        H  0.41420305  0.43163829  0.43928504     0.13400
C281        C  0.72280217  0.64689934  0.43179958     0.17200
C282        C  0.69404438  0.68778474  0.41919723    -0.31800
C283        C  0.72951379  0.71946193  0.40550227     0.21600
C284        C  0.79135727  0.71302135  0.40490941     0.03800
C285        C  0.82059562  0.67416082  0.41832472    -0.21500
C286        C  0.78461623  0.64049654  0.43154392     0.13000
S287        S  0.68582292  0.59508050  0.44583202    -0.05200
C288        C  0.75402397  0.56107598  0.45064905    -0.08600
C289        C  0.80307702  0.59337748  0.44323517    -0.25300
S290        S  0.82474357  0.74921893  0.38514950    -0.02400
C291        C  0.75422374  0.77135572  0.37744999    -0.15900
C292        C  0.70820855  0.75346401  0.39002464    -0.13900
H293        H  0.64553651  0.69097581  0.41887982     0.21500
H294        H  0.86850758  0.66694497  0.41739933     0.17500
H295        H  0.84915389  0.57852722  0.44426498     0.20000
H296        H  0.66093940  0.76108223  0.38714126     0.13400
C297        C  0.31147476  0.26449673  0.41019911     0.17200
C298        C  0.31819402  0.28333786  0.43015226    -0.31800
C299        C  0.29885714  0.34113611  0.43485685     0.21600
C300        C  0.27244902  0.37743278  0.42052795     0.03800
C301        C  0.26279231  0.35753745  0.40093458    -0.21500
C302        C  0.28404884  0.30093845  0.39603603     0.13000
S303        S  0.34195393  0.20117564  0.40044118    -0.05200
C304        C  0.31833007  0.22503612  0.37707159    -0.08600
C305        C  0.28707052  0.27814668  0.37711103    -0.25300
S306        S  0.26360592  0.44928652  0.42777228    -0.02400
C307        C  0.29755136  0.43209838  0.45050219    -0.15900
C308        C  0.31092560  0.37132959  0.45227843    -0.13900
H309        H  0.34173020  0.25615906  0.44109252     0.21500
H310        H  0.24423626  0.38690584  0.38956241     0.17500
H311        H  0.27103735  0.30104680  0.36378524     0.20000
H312        H  0.33575569  0.35186301  0.46466870     0.13400
C313        C  0.49874599  0.43304470  0.10633518     0.17200
C314        C  0.48605178  0.48931841  0.11408071    -0.31800
C315        C  0.50759820  0.53912079  0.10356414     0.21600
C316        C  0.53777387  0.53343510  0.08559819     0.03800
C317        C  0.54829236  0.47697843  0.07738364    -0.21500
C318        C  0.52929766  0.42687705  0.08845073     0.13000
S319        S  0.48879970  0.36852975  0.11932761    -0.05200
C320        C  0.52726038  0.33137948  0.10068392    -0.08600
C321        C  0.54506048  0.36880010  0.08497388    -0.25300
S322        S  0.56810340  0.59856780  0.07684149    -0.02400
C323        C  0.54093302  0.63422030  0.09792186    -0.15900
C324        C  0.50889511  0.59622564  0.11061705    -0.13900
H325        H  0.46495796  0.49393132  0.12857923     0.21500
H326        H  0.57455212  0.47221795  0.06388035     0.17500
H327        H  0.57345574  0.35533216  0.07270987     0.20000
H328        H  0.49187075  0.60821527  0.12520486     0.13400
C329        C  0.42285557  0.22158218  0.13927652     0.17200
C330        C  0.36586631  0.22467016  0.14820875    -0.31800
C331        C  0.36382179  0.23344712  0.16909838     0.21600
C332        C  0.41609767  0.23618290  0.18052000     0.03800
C333        C  0.47237450  0.23071177  0.17171473    -0.21500
C334        C  0.47442840  0.22490289  0.15087540     0.13000
S335        S  0.43622999  0.22515732  0.11407641    -0.05200
C336        C  0.51224524  0.23615038  0.11919630    -0.08600
C337        C  0.52502955  0.23174496  0.13970161    -0.25300
S338        S  0.40607739  0.25439986  0.20496280    -0.02400
C339        C  0.33047173  0.25966100  0.19993792    -0.15900
C340        C  0.31391250  0.24610590  0.18033415    -0.13900
H341        H  0.32533821  0.22511373  0.13914106     0.21500
H342        H  0.51309344  0.23588101  0.18055429     0.17500
H343        H  0.56762677  0.24201922  0.14677765     0.20000
H344        H  0.26863581  0.24895276  0.17439434     0.13400
C345        C  0.70278151  0.31420015  0.13264493     0.17200
C346        C  0.74319461  0.34518624  0.14497405    -0.31800
C347        C  0.77747772  0.31185953  0.15854484     0.21600
C348        C  0.77396543  0.25001828  0.15920390     0.03800
C349        C  0.73580665  0.21866327  0.14594932    -0.21500
C350        C  0.69929437  0.25242629  0.13292919     0.13000
S351        S  0.64828787  0.34792225  0.11893013    -0.05200
C352        C  0.61742422  0.27821111  0.11390911    -0.08600
C353        C  0.65207602  0.23135937  0.12146858    -0.25300
S354        S  0.81159031  0.21897817  0.17911143    -0.02400
C355        C  0.83036028  0.29027603  0.18679076    -0.15900
C356        C  0.81070281  0.33502042  0.17402693    -0.13900
H357        H  0.74387999  0.39354023  0.14526098     0.21500
H358        H  0.73097803  0.17059138  0.14695838     0.17500
H359        H  0.63925992  0.18469336  0.12049029     0.20000
H360        H  0.81567710  0.38236722  0.17692581     0.13400
C361        C  0.81080025  0.36786714  0.42552092     0.17200
C362        C  0.80876335  0.31109807  0.41660775    -0.31800
C363        C  0.80152306  0.30862616  0.39564239     0.21600
C364        C  0.80027566  0.36037119  0.38411473     0.03800
C365        C  0.80490022  0.41655670  0.39294092    -0.21500
C366        C  0.80822099  0.41894984  0.41385734     0.13000
S367        S  0.80381461  0.38106267  0.45059266    -0.05200
C368        C  0.79293360  0.45625382  0.44534404    -0.08600
C369        C  0.79895881  0.46897546  0.42489899    -0.25300
S370        S  0.78355708  0.34973277  0.35949318    -0.02400
C371        C  0.77594629  0.27472233  0.36465356    -0.15900
C372        C  0.78818900  0.25877465  0.38441229    -0.13900
H373        H  0.80724826  0.27092794  0.42571183     0.21500
H374        H  0.80032523  0.45683109  0.38399705     0.17500
H375        H  0.78839038  0.51087273  0.41765754     0.20000
H376        H  0.78371739  0.21399016  0.39045627     0.13400
C377        C  0.81630805  0.46111052  0.54821022     0.17200
C378        C  0.81553384  0.43387004  0.52933362    -0.31800
C379        C  0.81263335  0.47119129  0.51240831     0.21600
C380        C  0.81518462  0.53268864  0.51416425     0.03800
C381        C  0.81714669  0.55989292  0.53302463    -0.21500
C382        C  0.81525561  0.52262544  0.54995807     0.13000
S383        S  0.80629536  0.42386735  0.57022364    -0.05200
C384        C  0.79524304  0.49185124  0.58197398    -0.08600
C385        C  0.80325399  0.54047095  0.56912340    -0.25300
S386        S  0.80400791  0.57012931  0.49224099    -0.02400
C387        C  0.79109273  0.50229426  0.48044380    -0.15900
C388        C  0.79884954  0.45351446  0.49325781    -0.13900
H389        H  0.81166585  0.38581204  0.52796219     0.21500
H390        H  0.81448966  0.60797019  0.53441989     0.17500
H391        H  0.79337474  0.58624238  0.57277961     0.20000
H392        H  0.78813546  0.40775340  0.48955395     0.13400
C393        C  0.79576659  0.28602138  0.65868852     0.17200
C394        C  0.82479199  0.32425944  0.64504162    -0.31800
C395        C  0.78876640  0.35529911  0.63119956     0.21600
C396        C  0.72707099  0.34681953  0.63053654     0.03800
C397        C  0.69870765  0.30515891  0.64307370    -0.21500
C398        C  0.73426180  0.27615541  0.65745105     0.13000
S399        S  0.82882337  0.25586556  0.67958743    -0.05200
C400        C  0.75893133  0.23009443  0.68668766    -0.08600
C401        C  0.71315701  0.24293504  0.67320849    -0.25300
S402        S  0.68972890  0.39803224  0.61641405    -0.02400
C403        C  0.75784224  0.43330679  0.61167897    -0.15900
C404        C  0.80695891  0.40262864  0.61953076    -0.13900
H405        H  0.87238917  0.33380277  0.64643088     0.21500
H406        H  0.65028785  0.30013317  0.64300559     0.17500
H407        H  0.66609209  0.23288529  0.67566299     0.20000
H408        H  0.85286734  0.41885020  0.61882301     0.13400
C409        C  0.79762043  0.63929696  0.67761291     0.17200
C410        C  0.79913158  0.58238957  0.66931479    -0.31800
C411        C  0.80706839  0.57813100  0.64863502     0.21600
C412        C  0.81578138  0.62803182  0.63670896     0.03800
C413        C  0.81709867  0.68555272  0.64519208    -0.21500
C414        C  0.80652372  0.69006453  0.66594583     0.13000
S415        S  0.77737989  0.65239253  0.70163369    -0.05200
C416        C  0.78027791  0.72743271  0.69624655    -0.08600
C417        C  0.79757919  0.74151669  0.67677494    -0.25300
S418        S  0.81298913  0.61283545  0.61160741    -0.02400
C419        C  0.79705086  0.53839570  0.61714048    -0.15900
C420        C  0.79758022  0.52749693  0.63779955    -0.13900
H421        H  0.78948095  0.54317955  0.67837442     0.21500
H422        H  0.82129548  0.72502995  0.63583864     0.17500
H423        H  0.79982210  0.78631648  0.67061939     0.20000
H424        H  0.78317552  0.48647607  0.64499713     0.13400
C425        C  0.59172439  0.21508805  0.05057239     0.17200
C426        C  0.62002221  0.21466581  0.03182596    -0.31800
C427        C  0.58342241  0.21866618  0.01464516     0.21600
C428        C  0.52142192  0.21871362  0.01609107     0.03800
C429        C  0.49314494  0.21711619  0.03479373    -0.21500
C430        C  0.52981813  0.21749531  0.05196583     0.13000
S431        S  0.62830684  0.22488193  0.07283627    -0.05200
C432        C  0.55961565  0.23708139  0.08420287    -0.08600
C433        C  0.51115994  0.22935797  0.07108745    -0.25300
S434        S  0.48512941  0.23301422  0.99410222    -0.02400
C435        C  0.55425306  0.24292050  0.98266392    -0.15900
C436        C  0.60250241  0.23174226  0.99554873    -0.13900
H437        H  0.66850434  0.21705797  0.03074546     0.21500
H438        H  0.44487667  0.22141157  0.03591045     0.17500
H439        H  0.46509310  0.23956174  0.07457182     0.20000
H440        H  0.64912885  0.23929214  0.99179036     0.13400
C441        C  0.66336773  0.22831738  0.91900135     0.17200
C442        C  0.68161340  0.22209760  0.89909002    -0.31800
C443        C  0.73760308  0.24602719  0.89380152     0.21600
C444        C  0.77533193  0.27230630  0.90791134     0.03800
C445        C  0.75785801  0.27632508  0.92811079    -0.21500
C446        C  0.70030173  0.25480103  0.93321145     0.13000
S447        S  0.59211656  0.21560938  0.92681078    -0.05200
C448        C  0.60937567  0.25012825  0.94938530    -0.08600
C449        C  0.67057222  0.26484708  0.95090722    -0.25300
S450        S  0.83880685  0.30398972  0.89787242    -0.02400
C451        C  0.81306894  0.28288258  0.87443530    -0.15900
C452        C  0.75904516  0.25170666  0.87467536    -0.13900
H453        H  0.65135718  0.20385573  0.88784293     0.21500
H454        H  0.78588247  0.29931742  0.93899871     0.17500
H455        H  0.69036973  0.28973149  0.96320808     0.20000
H456        H  0.73514098  0.23650574  0.86141326     0.13400
C457        C  0.35738298  0.34350384  0.90555996     0.17200
C458        C  0.39686868  0.36369592  0.92040807    -0.31800
C459        C  0.42594440  0.32080342  0.93212095     0.21600
C460        C  0.41412896  0.26044859  0.92999823     0.03800
C461        C  0.37234588  0.24004322  0.91559950    -0.21500
C462        C  0.34530824  0.28305758  0.90308831     0.13000
S463        S  0.32690284  0.38863918  0.88776666    -0.05200
C464        C  0.29808707  0.32573594  0.87644012    -0.08600
C465        C  0.31018555  0.27251656  0.88639049    -0.25300
S466        S  0.46005232  0.21618580  0.94421694    -0.02400
C467        C  0.49962490  0.27986586  0.95168996    -0.15900
C468        C  0.47273146  0.33221225  0.94482933    -0.13900
H469        H  0.40804460  0.41073282  0.92172725     0.21500
H470        H  0.36458155  0.19274938  0.91329817     0.17500
H471        H  0.29739879  0.22861051  0.88102066     0.20000
H472        H  0.48840239  0.37720974  0.94762490     0.13400
C473        C  0.26849155  0.44954745  0.51905618     0.17200
C474        C  0.26611041  0.42403809  0.53828788    -0.31800
C475        C  0.26826221  0.46282689  0.55473726     0.21600
C476        C  0.26936784  0.52413427  0.55208884     0.03800
C477        C  0.26955267  0.54964257  0.53286327    -0.21500
C478        C  0.27068531  0.51087281  0.51645065     0.13000
S479        S  0.28015760  0.41029491  0.49769001    -0.05200
C480        C  0.29055431  0.47712860  0.48493125    -0.08600
C481        C  0.28247521  0.52700459  0.49700288    -0.25300
S482        S  0.28297394  0.56316199  0.57343805    -0.02400
C483        C  0.29193424  0.49631491  0.58621265    -0.15900
C484        C  0.27949395  0.44657851  0.57426165    -0.13900
H485        H  0.26825261  0.37611009  0.54034776     0.21500
H486        H  0.27432746  0.59745344  0.53083893     0.17500
H487        H  0.29143815  0.57264431  0.49243001     0.20000
H488        H  0.28677578  0.40069766  0.57875447     0.13400
C489        C  0.49587723  0.51227071  0.58518006     0.17200
C490        C  0.55199321  0.49995714  0.57669595    -0.31800
C491        C  0.60350555  0.51846696  0.58738370     0.21600
C492        C  0.59887406  0.55022391  0.60506756     0.03800
C493        C  0.54316078  0.56411388  0.61311240    -0.21500
C494        C  0.49212418  0.54303096  0.60307525     0.13000
S495        S  0.42872739  0.48412804  0.57691934    -0.05200
C496        C  0.39531619  0.51241301  0.59831779    -0.08600
C497        C  0.43547342  0.54323505  0.61063532    -0.25300
S498        S  0.66456790  0.56119058  0.61747675    -0.02400
C499        C  0.70045046  0.52131717  0.59896245    -0.15900
C500        C  0.66169905  0.50221718  0.58366091    -0.13900
H501        H  0.55538992  0.47320038  0.56327431     0.21500
H502        H  0.53986270  0.58613800  0.62749254     0.17500
H503        H  0.42544257  0.56048934  0.62535768     0.20000
H504        H  0.67451680  0.47333558  0.57147366     0.13400
C505        C  0.30341963  0.28420684  0.66203280     0.17200
C506        C  0.27233214  0.32083984  0.64832016    -0.31800
C507        C  0.30639358  0.35151310  0.63376467     0.21600
C508        C  0.36786469  0.34351977  0.63247307     0.03800
C509        C  0.39808474  0.30415152  0.64523418    -0.21500
C510        C  0.36485363  0.27618243  0.66033925     0.13000
S511        S  0.27356551  0.25375993  0.68342071    -0.05200
C512        C  0.34498006  0.23152967  0.69016394    -0.08600
C513        C  0.38866335  0.24537698  0.67620569    -0.25300
S514        S  0.40368241  0.39331893  0.61744567    -0.02400
C515        C  0.33581541  0.42887391  0.61342365    -0.15900
C516        C  0.28719488  0.39830221  0.62193489    -0.13900
H517        H  0.22491157  0.32946986  0.65012189     0.21500
H518        H  0.44649625  0.30024270  0.64471363     0.17500
H519        H  0.43619949  0.23724250  0.67825626     0.20000
H520        H  0.24157485  0.41468020  0.62177810     0.13400
C521        C  0.52342980  0.76246324  0.01778343     0.17200
C522        C  0.49668708  0.76293285  0.03676248    -0.31800
C523        C  0.53477345  0.76020143  0.05360426     0.21600
C524        C  0.59658164  0.76205999  0.05165205     0.03800
C525        C  0.62328052  0.76298850  0.03269374    -0.21500
C526        C  0.58519855  0.76067561  0.01587418     0.13000
S527        S  0.48520650  0.75229673  0.99583535    -0.05200
C528        C  0.55312350  0.74097795  0.98386539    -0.08600
C529        C  0.60242125  0.74819220  0.99666455    -0.25300
S530        S  0.63489409  0.74931817  0.07336399    -0.02400
C531        C  0.56704389  0.73515872  0.08520067    -0.15900
C532        C  0.51757056  0.74540845  0.07271784    -0.13900
H533        H  0.44838163  0.75946087  0.03828841     0.21500
H534        H  0.67152173  0.75953252  0.03116263     0.17500
H535        H  0.64829719  0.73833036  0.99288365     0.20000
H536        H  0.47168519  0.73409596  0.07634709     0.13400
C537        C  0.57984847  0.44473305  0.97986449     0.17200
C538        C  0.56991601  0.50097279  0.98843225    -0.31800
C539        C  0.58292311  0.55176703  0.97671166     0.21600
C540        C  0.60662887  0.54649100  0.95766131     0.03800
C541        C  0.61803075  0.49053599  0.94935530    -0.21500
C542        C  0.60320169  0.43997306  0.96076100     0.13000
S543        S  0.55775259  0.37808202  0.99008354    -0.05200
C544        C  0.57967653  0.34275713  0.96823575    -0.08600
C545        C  0.60338914  0.38234369  0.95407034    -0.25300
S546        S  0.61215096  0.61182758  0.94476666    -0.02400
C547        C  0.58173406  0.64829177  0.96517054    -0.15900
C548        C  0.56873936  0.60984330  0.98116068    -0.13900
H549        H  0.54940881  0.50489076  0.00304365     0.21500
H550        H  0.63416025  0.48655149  0.93413199     0.17500
H551        H  0.61538891  0.37023072  0.93891915     0.20000
H552        H  0.54583164  0.62283378  0.99470520     0.13400
C553        C  0.69042572  0.76420038  0.92924707     0.17200
C554        C  0.74729858  0.76165199  0.92018736    -0.31800
C555        C  0.74899804  0.75713784  0.89912827     0.21600
C556        C  0.69658583  0.75859417  0.88775626     0.03800
C557        C  0.64062101  0.76423059  0.89673791    -0.21500
C558        C  0.63877114  0.76509259  0.91766363     0.13000
S559        S  0.67692729  0.75381995  0.95422402    -0.05200
C560        C  0.60058442  0.74632181  0.94894524    -0.08600
C561        C  0.58806205  0.75610307  0.92862820    -0.25300
S562        S  0.70547463  0.74378082  0.86302357    -0.02400
C563        C  0.78073936  0.73429538  0.86778103    -0.15900
C564        C  0.79818286  0.74409218  0.88756579    -0.13900
H565        H  0.78778049  0.75768205  0.92917971     0.21500
H566        H  0.59974420  0.76206588  0.88784347     0.17500
H567        H  0.54549588  0.74813187  0.92123602     0.20000
H568        H  0.84327769  0.73796470  0.89336666     0.13400
C569        C  0.30193360  0.58461250  0.65374515     0.17200
C570        C  0.30496877  0.60215098  0.67379859    -0.31800
C571        C  0.31568251  0.66254112  0.67772397     0.21600
C572        C  0.32074227  0.70441861  0.66242832     0.03800
C573        C  0.31644586  0.68681128  0.64224342    -0.21500
C574        C  0.30787718  0.62560676  0.63829845     0.13000
S575        S  0.30015702  0.51246818  0.64629688    -0.05200
C576        C  0.31030386  0.53590546  0.62167511    -0.08600
C577        C  0.31137799  0.59829850  0.61991879    -0.25300
S578        S  0.33760641  0.77507587  0.67062775    -0.02400
C579        C  0.33970865  0.74679617  0.69474528    -0.15900
C580        C  0.32647679  0.68648874  0.69619717    -0.13900
H581        H  0.30279309  0.56952248  0.68583018     0.21500
H582        H  0.32281911  0.71879283  0.63019004     0.17500
H583        H  0.32220529  0.62267804  0.60637798     0.20000
H584        H  0.32673620  0.66095524  0.71004495     0.13400
C585        C  0.34562992  0.74768959  0.90618576     0.17200
C586        C  0.38342424  0.77603843  0.92030245    -0.31800
C587        C  0.41528503  0.73952694  0.93387387     0.21600
C588        C  0.40776504  0.67805975  0.93381473     0.03800
C589        C  0.36780917  0.65017239  0.92051667    -0.21500
C590        C  0.33838641  0.68613466  0.90641979     0.13000
S591        S  0.31150923  0.78202415  0.88611839    -0.05200
C592        C  0.28927303  0.71233763  0.87781144    -0.08600
C593        C  0.30582291  0.66580126  0.89036170    -0.25300
S594        S  0.45794714  0.64040118  0.94825400    -0.02400
C595        C  0.49345418  0.70771549  0.95355654    -0.15900
C596        C  0.46209176  0.75705885  0.94616455    -0.13900
H597        H  0.39141307  0.82377607  0.91965506     0.21500
H598        H  0.36396669  0.60195595  0.91998941     0.17500
H599        H  0.29751353  0.61899668  0.88726553     0.20000
H600        H  0.47785876  0.80278075  0.94747615     0.13400
loop_ 
_geom_bond_atom_site_label_1 
_geom_bond_atom_site_label_2 
_geom_bond_distance 
_geom_bond_site_symmetry_2 
_ccdc_geom_bond_type 
O1            C4   1.268       .  A
O1           Cd6   2.544       .  S
C2           O11   1.266       .  A
C2            O7   1.265       .  A
C2           C17   1.479       .  S
O3            C9   1.265       .  A
O3           Cd6   2.488       .  S
C4           O12   1.262       .  A
C4           C30   1.474       .  S
C5           O10   1.267       .  A
C5            O8   1.263       .  A
C5          C592   1.473       .  S
Cd6          O13   2.471       .  S
Cd6          O12   2.441       .  S
Cd6          O11   2.511       .  S
Cd6           O7   2.493       .  S
Cd6          O10   2.513       .  S
Cd6           O8   2.437       .  S
C9           O13   1.265       .  A
C9           C64   1.470       .  S
O14          C17   1.266       .  A
O14         Cd19   2.484       .  S
C15          O24   1.263       .  A
C15          O20   1.265       .  A
C15          C70   1.471       .  S
O16          C22   1.265       .  A
O16         Cd19   2.501       .  S
C17          O25   1.267       .  A
C18          O23   1.264       .  A
C18          O21   1.265       .  A
C18          C46   1.471   1_565  S
Cd19         O26   2.433       .  S
Cd19         O25   2.507       .  S
Cd19         O24   2.470       .  S
Cd19         O20   2.504       .  S
Cd19         O23   2.480       .  S
Cd19         O21   2.485       .  S
C22          O26   1.263       .  A
C22         C579   1.470       .  S
C27         C528   1.538       .  S
C27         C547   1.539       .  S
C27         C560   1.551       .  S
C27         C595   1.549       .  S
C28         C483   1.532       .  S
C28         C496   1.538       .  S
C28         C515   1.548       .  S
C28         C576   1.553       .  S
O29          C32   1.265       .  A
O29         Cd34   2.493       .  S
C30          O39   1.263       .  A
C30          O35   1.270       .  A
O31          C37   1.265       .  A
O31         Cd34   2.465       .  S
C32          O40   1.264       .  A
C32          C43   1.472       .  S
C33          O38   1.266       .  A
C33          O36   1.260       .  A
C33         C464   1.466       .  S
Cd34         O41   2.478       .  S
Cd34         O40   2.481       .  S
Cd34         O39   2.426       .  S
Cd34         O35   2.533       .  S
Cd34         O38   2.516       .  S
Cd34         O36   2.410       .  S
C37          O41   1.266       .  A
C37          C91   1.469       .  S
O42          C45   1.264       .  A
O42         Cd47   2.471       .  S
C43          O52   1.263       .  A
C43          O48   1.264       .  A
O44          C50   1.264       .  A
O44         Cd47   2.493       .  S
C45          O53   1.267       .  A
C45          C97   1.473       .  S
C46          O51   1.265       .  A
C46          O49   1.265       .  A
Cd47         O54   2.454       .  S
Cd47         O53   2.495       .  S
Cd47         O52   2.484       .  S
Cd47         O48   2.497       .  S
Cd47         O51   2.479       .  S
Cd47         O49   2.481       .  S
C50          O54   1.264       .  A
C50         C512   1.472       .  S
C55         C435   1.533       .  S
C55         C448   1.554       .  S
C55         C467   1.553       .  S
C55         C544   1.546       .  S
O56          C59   1.264       .  A
O56         Cd61   2.451       .  S
C57          O66   1.264       .  A
C57          O62   1.265       .  A
C57          C86   1.475       .  S
O58          C64   1.267   1_655  A
O58         Cd61   2.484       .  S
C59          O67   1.266       .  A
C59          C72   1.469       .  S
C60          O65   1.267       .  A
C60          O63   1.262       .  A
C60         C563   1.469       .  S
Cd61         O68   2.466       .  S
Cd61         O67   2.506       .  S
Cd61         O66   2.486       .  S
Cd61         O62   2.504       .  S
Cd61         O65   2.518       .  S
Cd61         O63   2.415       .  S
C64          O68   1.265   1_455  A
O69          C72   1.263       .  A
O69         Cd74   2.444       .  S
C70          O79   1.264       .  A
C70          O75   1.265       .  A
O71          C77   1.266       .  A
O71         Cd74   2.474       .  S
C72          O80   1.267       .  A
C73          O78   1.267       .  A
C73          O76   1.261       .  A
C73         C416   1.468       .  S
Cd74         O81   2.478       .  S
Cd74         O80   2.507       .  S
Cd74         O79   2.468       .  S
Cd74         O75   2.496       .  S
Cd74         O78   2.533       .  S
Cd74         O76   2.399       .  S
C77          O81   1.266       .  A
C77         C100   1.472   1_565  S
C82         C384   1.535       .  S
C82         C403   1.544       .  S
C82         C419   1.550       .  S
C82         C499   1.536       .  S
O83          C86   1.265       .  A
O83         Cd88   2.509       .  S
C84          O93   1.267       .  A
C84          O89   1.266       .  A
C84          C99   1.476       .  S
O85          C91   1.264   1_655  A
O85         Cd88   2.478       .  S
C86          O94   1.263       .  A
C87          O92   1.265       .  A
C87          O90   1.264       .  A
C87         C451   1.477       .  S
Cd88         O95   2.487       .  S
Cd88         O94   2.483       .  S
Cd88         O93   2.497       .  S
Cd88         O89   2.483       .  S
Cd88         O92   2.506       .  S
Cd88         O90   2.467       .  S
C91          O95   1.264   1_455  A
O96          C99   1.264       .  A
O96        Cd101   2.491       .  S
C97         O106   1.264       .  A
C97         O102   1.265       .  A
O98         C104   1.264       .  A
O98        Cd101   2.451       .  S
C99         O107   1.264       .  A
C100        O105   1.264       .  A
C100        O103   1.266       .  A
Cd101       O108   2.484       .  S
Cd101       O107   2.503       .  S
Cd101       O106   2.496       .  S
Cd101       O102   2.487       .  S
Cd101       O105   2.481       .  S
Cd101       O103   2.490       .  S
C104        O108   1.266       .  A
C104        C400   1.470       .  S
O109        C112   1.266       .  A
O109       Cd114   2.474       .  S
C110        O119   1.265       .  A
C110        O115   1.266       .  A
C110        C139   1.475       .  S
O111        C117   1.267       .  A
O111       Cd114   2.492       .  S
C112        O120   1.267       .  A
C112        C125   1.474       .  S
C113        O118   1.268       .  A
C113        O116   1.261       .  A
C113        C371   1.470       .  S
Cd114       O121   2.479       .  S
Cd114       O120   2.489       .  S
Cd114       O119   2.486       .  S
Cd114       O115   2.502       .  S
Cd114       O118   2.519       .  S
Cd114       O116   2.415       .  S
C117        O121   1.265       .  A
C117        C171   1.474   1_545  S
O122        C125   1.263       .  A
O122       Cd127   2.491       .  S
C123        O132   1.264       .  A
C123        O128   1.265       .  A
C123        C179   1.476       .  S
O124        C130   1.265   1_655  A
O124       Cd127   2.481       .  S
C125        O133   1.264       .  A
C126        O131   1.265       .  A
C126        O129   1.265       .  A
C126        C355   1.472       .  S
Cd127       O134   2.480       .  S
Cd127       O133   2.505       .  S
Cd127       O132   2.500       .  S
Cd127       O128   2.505       .  S
Cd127       O131   2.485       .  S
Cd127       O129   2.459       .  S
C130        O134   1.266   1_455  A
C130        C153   1.471       .  S
C135        C320   1.538       .  S
C135        C336   1.547       .  S
C135        C352   1.548       .  S
C135        C432   1.537       .  S
O136        C139   1.264       .  A
O136       Cd141   2.509       .  S
C137        O146   1.267       .  A
C137        O142   1.265       .  A
C137        C152   1.469       .  S
O138        C144   1.264       .  A
O138       Cd141   2.476       .  S
C139        O147   1.262       .  A
C140        O145   1.263       .  A
C140        O143   1.264       .  A
C140        C304   1.470       .  S
Cd141       O148   2.475       .  S
Cd141       O147   2.485       .  S
Cd141       O146   2.497       .  S
Cd141       O142   2.455       .  S
Cd141       O145   2.450       .  S
Cd141       O143   2.488       .  S
C144        O148   1.264       .  A
C144        C211   1.467   1_545  S
O149        C152   1.265       .  A
O149       Cd154   2.449       .  S
C150        O159   1.264       .  A
C150        O155   1.264       .  A
C150        C191   1.469       .  S
O151        C157   1.267       .  A
O151       Cd154   2.514       .  S
C152        O160   1.267       .  A
C153        O158   1.266       .  A
C153        O156   1.265       .  A
Cd154       O161   2.423       .  S
Cd154       O160   2.490       .  S
Cd154       O159   2.472       .  S
Cd154       O155   2.489       .  S
Cd154       O158   2.483       .  S
Cd154       O156   2.471       .  S
C157        O161   1.262       .  A
C157        C339   1.470       .  S
C162        C272   1.536       .  S
C162        C288   1.544       .  S
C162        C368   1.547       .  S
C162        C387   1.536       .  S
O163        C166   1.268       .  A
O163       Cd168   2.555       .  S
C164        O173   1.267       .  A
C164        O169   1.264       .  A
C164        C177   1.481       .  S
O165        C171   1.266       .  A
O165       Cd168   2.480       .  S
C166        O174   1.260       .  A
C166        C204   1.475       .  S
C167        O172   1.265       .  A
C167        O170   1.262       .  A
C167        C291   1.470       .  S
Cd168       O175   2.481       .  S
Cd168       O174   2.431       .  S
Cd168       O173   2.511       .  S
Cd168       O169   2.501       .  S
Cd168       O172   2.509       .  S
Cd168       O170   2.428       .  S
C171        O175   1.267       .  A
O176        C179   1.266       .  A
O176       Cd181   2.491       .  S
C177        O186   1.263       .  A
C177        O182   1.265       .  A
O178        C184   1.264   1_655  A
O178       Cd181   2.503       .  S
C179        O187   1.266       .  A
C180        O185   1.265       .  A
C180        O183   1.263       .  A
C180        C259   1.469       .  S
Cd181       O188   2.489       .  S
Cd181       O187   2.486       .  S
Cd181       O186   2.510       .  S
Cd181       O182   2.519       .  S
Cd181       O185   2.477       .  S
Cd181       O183   2.454       .  S
C184        O188   1.265   1_455  A
C184        C198   1.475       .  S
C189        C243   1.551       .  S
C189        C256   1.544       .  S
C189        C323   1.534       .  S
C189        C531   1.536       .  S
O190        C193   1.266       .  A
O190       Cd195   2.467       .  S
C191        O200   1.263       .  A
C191        O196   1.265       .  A
O192        C198   1.266       .  A
O192       Cd195   2.503       .  S
C193        O201   1.266       .  A
C193        C206   1.468       .  S
C194        O199   1.268       .  A
C194        O197   1.263       .  A
C194        C240   1.471       .  S
Cd195       O202   2.477       .  S
Cd195       O201   2.476       .  S
Cd195       O200   2.466       .  S
Cd195       O196   2.497       .  S
Cd195       O199   2.501       .  S
Cd195       O197   2.434       .  S
C198        O202   1.264       .  A
O203        C206   1.263       .  A
O203       Cd208   2.470       .  S
C204        O213   1.262       .  A
C204        O209   1.268       .  A
O205        C211   1.267       .  A
O205       Cd208   2.473       .  S
C206        O214   1.264       .  A
C207        O212   1.266       .  A
C207        O210   1.262       .  A
C207        C224   1.473       .  S
Cd208       O215   2.462       .  S
Cd208       O214   2.483       .  S
Cd208       O213   2.435       .  S
Cd208       O209   2.547       .  S
Cd208       O212   2.532       .  S
Cd208       O210   2.420       .  S
C211        O215   1.265       .  A
C216        C227   1.554       .  S
C216        C275   1.540       .  S
C216        C307   1.547       .  S
C216        C480   1.529       .  S
C217        S223   1.697       .  A
C217        C222   1.387       .  A
C217        C218   1.393       .  A
C218        C219   1.395       .  A
C218        H229   1.083       .  S
C219        C228   1.361       .  A
C219        C220   1.382       .  A
C220        S226   1.716       .  A
C220        C221   1.411       .  A
C221        C222   1.412       .  A
C221        H230   1.082       .  S
C222        C225   1.380       .  A
S223        C224   1.718       .  A
C224        C225   1.393       .  A
C225        H231   1.082       .  S
S226        C227   1.741       .  A
C227        C228   1.395       .  A
C228        H232   1.080       .  S
C233        S239   1.700       .  A
C233        C238   1.387       .  A
C233        C234   1.394       .  A
C234        C235   1.397       .  A
C234        H245   1.084       .  S
C235        C244   1.361       .  A
C235        C236   1.381       .  A
C236        S242   1.710       .  A
C236        C237   1.407       .  A
C237        C238   1.408       .  A
C237        H246   1.083       .  S
C238        C241   1.375       .  A
S239        C240   1.720       .  A
C240        C241   1.389       .  A
C241        H247   1.083       .  S
S242        C243   1.737       .  A
C243        C244   1.398       .  A
C244        H248   1.080       .  S
C249        S255   1.700       .  A
C249        C254   1.386       .  A
C249        C250   1.400       .  A
C250        C251   1.400       .  A
C250        H261   1.083       .  S
C251        C260   1.368       .  A
C251        C252   1.387       .  A
C252        S258   1.708       .  A
C252        C253   1.401       .  A
C253        C254   1.402       .  A
C253        H262   1.083       .  S
C254        C257   1.371       .  A
S255        C256   1.734       .  A
C256        C257   1.394       .  A
C257        H263   1.083       .  S
S258        C259   1.722       .  A
C259        C260   1.385       .  A
C260        H264   1.083       .  S
C265        S271   1.696       .  A
C265        C270   1.385       .  A
C265        C266   1.396       .  A
C266        C267   1.397       .  A
C266        H277   1.083       .  S
C267        C276   1.363       .  A
C267        C268   1.384       .  A
C268        S274   1.707       .  A
C268        C269   1.404       .  A
C269        C270   1.405       .  A
C269        H278   1.083       .  S
C270        C273   1.372       .  A
S271        C272   1.734       .  A
C272        C273   1.396       .  A
C273        H279   1.083       .  S
S274        C275   1.735       .  A
C275        C276   1.393       .  A
C276        H280   1.083       .  S
C281        S287   1.697       .  A
C281        C286   1.385       .  A
C281        C282   1.396       .  A
C282        C283   1.398       .  A
C282        H293   1.083       .  S
C283        C292   1.364       .  A
C283        C284   1.386       .  A
C284        S290   1.714       .  A
C284        C285   1.405       .  A
C285        C286   1.407       .  A
C285        H294   1.082       .  S
C286        C289   1.373       .  A
S287        C288   1.732       .  A
C288        C289   1.396       .  A
C289        H295   1.083       .  S
S290        C291   1.724       .  A
C291        C292   1.383       .  A
C292        H296   1.083       .  S
C297        S303   1.711       .  A
C297        C302   1.387       .  A
C297        C298   1.404       .  A
C298        C299   1.405       .  A
C298        H309   1.083       .  S
C299        C308   1.370       .  A
C299        C300   1.382       .  A
C300        S306   1.696       .  A
C300        C301   1.397       .  A
C301        C302   1.398       .  A
C301        H310   1.083       .  S
C302        C305   1.366       .  A
S303        C304   1.724       .  A
C304        C305   1.383       .  A
C305        H311   1.083       .  S
S306        C307   1.731       .  A
C307        C308   1.400       .  A
C308        H312   1.083       .  S
C313        S319   1.694       .  A
C313        C318   1.385       .  A
C313        C314   1.396       .  A
C314        C315   1.397       .  A
C314        H325   1.083       .  S
C315        C324   1.365       .  A
C315        C316   1.384       .  A
C316        S322   1.704       .  A
C316        C317   1.403       .  A
C317        C318   1.403       .  A
C317        H326   1.083       .  S
C318        C321   1.371       .  A
S319        C320   1.734       .  A
C320        C321   1.395       .  A
C321        H327   1.083       .  S
S322        C323   1.735       .  A
C323        C324   1.392       .  A
C324        H328   1.082       .  S
C329        S335   1.709       .  A
C329        C334   1.381       .  A
C329        C330   1.408       .  A
C330        C331   1.408       .  A
C330        H341   1.082       .  S
C331        C340   1.377       .  A
C331        C332   1.387       .  A
C332        S338   1.698       .  A
C332        C333   1.394       .  A
C333        C334   1.397       .  A
C333        H342   1.083       .  S
C334        C337   1.362       .  A
S335        C336   1.739       .  A
C336        C337   1.397       .  A
C337        H343   1.079       .  S
S338        C339   1.719       .  A
C339        C340   1.389       .  A
C340        H344   1.083       .  S
C345        S351   1.695       .  A
C345        C350   1.385       .  A
C345        C346   1.396       .  A
C346        C347   1.397       .  A
C346        H357   1.083       .  S
C347        C356   1.367       .  A
C347        C348   1.387       .  A
C348        S354   1.712       .  A
C348        C349   1.407       .  A
C349        C350   1.407       .  A
C349        H358   1.083       .  S
C350        C353   1.376       .  A
S351        C352   1.733       .  A
C352        C353   1.398       .  A
C353        H359   1.083       .  S
S354        C355   1.726       .  A
C355        C356   1.383       .  A
C356        H360   1.083       .  S
C361        S367   1.707       .  A
C361        C366   1.381       .  A
C361        C362   1.406       .  A
C362        C363   1.407       .  A
C362        H373   1.083       .  S
C363        C372   1.376       .  A
C363        C364   1.387       .  A
C364        S370   1.698       .  A
C364        C365   1.394       .  A
C365        C366   1.397       .  A
C365        H374   1.084       .  S
C366        C369   1.362       .  A
S367        C368   1.737       .  A
C368        C369   1.398       .  A
C369        H375   1.080       .  S
S370        C371   1.720       .  A
C371        C372   1.389       .  A
C372        H376   1.083       .  S
C377        S383   1.699       .  A
C377        C382   1.383       .  A
C377        C378   1.401       .  A
C378        C379   1.402       .  A
C378        H389   1.083       .  S
C379        C388   1.370       .  A
C379        C380   1.383       .  A
C380        S386   1.699       .  A
C380        C381   1.400       .  A
C381        C382   1.401       .  A
C381        H390   1.083       .  S
C382        C385   1.369       .  A
S383        C384   1.736       .  A
C384        C385   1.393       .  A
C385        H391   1.080       .  S
S386        C387   1.735       .  A
C387        C388   1.394       .  A
C388        H392   1.079       .  S
C393        S399   1.710       .  A
C393        C398   1.387       .  A
C393        C394   1.403       .  A
C394        C395   1.404       .  A
C394        H405   1.082       .  S
C395        C404   1.371       .  A
C395        C396   1.385       .  A
C396        S402   1.699       .  A
C396        C397   1.399       .  A
C397        C398   1.400       .  A
C397        H406   1.083       .  S
C398        C401   1.367       .  A
S399        C400   1.723       .  A
C400        C401   1.385       .  A
C401        H407   1.083       .  S
S402        C403   1.733       .  A
C403        C404   1.394       .  A
C404        H408   1.083       .  S
C409        S415   1.694       .  A
C409        C414   1.388       .  A
C409        C410   1.393       .  A
C410        C411   1.395       .  A
C410        H421   1.084       .  S
C411        C420   1.361       .  A
C411        C412   1.381       .  A
C412        S418   1.710       .  A
C412        C413   1.409       .  A
C413        C414   1.409       .  A
C413        H422   1.083       .  S
C414        C417   1.379       .  A
S415        C416   1.717       .  A
C416        C417   1.390       .  A
C417        H423   1.083       .  S
S418        C419   1.739       .  A
C419        C420   1.397       .  A
C420        H424   1.081       .  S
C425        S431   1.702       .  A
C425        C430   1.383       .  A
C425        C426   1.403       .  A
C426        C427   1.404       .  A
C426        H437   1.083       .  S
C427        C436   1.374   1_554  A
C427        C428   1.384       .  A
C428        S434   1.699   1_554  A
C428        C429   1.401       .  A
C429        C430   1.401       .  A
C429        H438   1.083       .  S
C430        C433   1.371       .  A
S431        C432   1.736       .  A
C432        C433   1.394       .  A
C433        H439   1.080       .  S
S434        C435   1.734       .  A
C435        C436   1.394       .  A
C436        H440   1.081       .  S
C441        S447   1.694       .  A
C441        C446   1.382       .  A
C441        C442   1.399       .  A
C442        C443   1.399       .  A
C442        H453   1.083       .  S
C443        C452   1.369       .  A
C443        C444   1.386       .  A
C444        S450   1.714       .  A
C444        C445   1.408       .  A
C445        C446   1.408       .  A
C445        H454   1.083       .  S
C446        C449   1.377       .  A
S447        C448   1.734       .  A
C448        C449   1.402       .  A
C449        H455   1.083       .  S
S450        C451   1.727       .  A
C451        C452   1.385       .  A
C452        H456   1.083       .  S
C457        S463   1.696       .  A
C457        C462   1.388       .  A
C457        C458   1.393       .  A
C458        C459   1.396       .  A
C458        H469   1.084       .  S
C459        C468   1.361       .  A
C459        C460   1.382       .  A
C460        S466   1.709       .  A
C460        C461   1.407       .  A
C461        C462   1.407       .  A
C461        H470   1.083       .  S
C462        C465   1.376       .  A
S463        C464   1.718       .  A
C464        C465   1.388       .  A
C465        H471   1.083       .  S
S466        C467   1.742       .  A
C467        C468   1.395       .  A
C468        H472   1.080       .  S
C473        S479   1.700       .  A
C473        C478   1.384       .  A
C473        C474   1.402       .  A
C474        C475   1.403       .  A
C474        H485   1.083       .  S
C475        C484   1.371       .  A
C475        C476   1.383       .  A
C476        S482   1.698       .  A
C476        C477   1.400       .  A
C477        C478   1.401       .  A
C477        H486   1.083       .  S
C478        C481   1.370       .  A
S479        C480   1.732       .  A
C480        C481   1.394       .  A
C481        H487   1.082       .  S
S482        C483   1.731       .  A
C483        C484   1.397       .  A
C484        H488   1.082       .  S
C489        S495   1.706       .  A
C489        C494   1.384       .  A
C489        C490   1.405       .  A
C490        C491   1.406       .  A
C490        H501   1.083       .  S
C491        C500   1.373       .  A
C491        C492   1.385       .  A
C492        S498   1.691       .  A
C492        C493   1.393       .  A
C493        C494   1.394       .  A
C493        H502   1.083       .  S
C494        C497   1.361       .  A
S495        C496   1.738       .  A
C496        C497   1.390       .  A
C497        H503   1.082       .  S
S498        C499   1.731       .  A
C499        C500   1.397       .  A
C500        H504   1.082       .  S
C505        S511   1.713       .  A
C505        C510   1.386       .  A
C505        C506   1.407       .  A
C506        C507   1.408       .  A
C506        H517   1.083       .  S
C507        C516   1.377       .  A
C507        C508   1.385       .  A
C508        S514   1.693       .  A
C508        C509   1.396       .  A
C509        C510   1.396       .  A
C509        H518   1.083       .  S
C510        C513   1.366       .  A
S511        C512   1.726       .  A
C512        C513   1.383       .  A
C513        H519   1.083       .  S
S514        C515   1.733       .  A
C515        C516   1.398       .  A
C516        H520   1.083       .  S
C521        S527   1.702   1_554  A
C521        C526   1.383       .  A
C521        C522   1.402       .  A
C522        C523   1.403       .  A
C522        H533   1.083       .  S
C523        C532   1.371       .  A
C523        C524   1.383       .  A
C524        S530   1.699       .  A
C524        C525   1.400       .  A
C525        C526   1.402       .  A
C525        H534   1.083       .  S
C526        C529   1.370   1_554  A
S527        C528   1.736       .  A
C528        C529   1.394       .  A
C529        H535   1.079       .  S
S530        C531   1.735       .  A
C531        C532   1.396       .  A
C532        H536   1.079       .  S
C537        S543   1.707       .  A
C537        C542   1.384       .  A
C537        C538   1.405       .  A
C538        C539   1.406       .  A
C538        H549   1.083   1_556  S
C539        C548   1.375       .  A
C539        C540   1.385       .  A
C540        S546   1.697       .  A
C540        C541   1.398       .  A
C541        C542   1.399       .  A
C541        H550   1.083       .  S
C542        C545   1.368       .  A
S543        C544   1.736       .  A
C544        C545   1.395       .  A
C545        H551   1.083       .  S
S546        C547   1.735       .  A
C547        C548   1.397       .  A
C548        H552   1.082       .  S
C553        S559   1.708       .  A
C553        C558   1.381       .  A
C553        C554   1.408       .  A
C554        C555   1.409       .  A
C554        H565   1.083       .  S
C555        C564   1.378       .  A
C555        C556   1.387       .  A
C556        S562   1.697       .  A
C556        C557   1.393       .  A
C557        C558   1.396       .  A
C557        H566   1.083       .  S
C558        C561   1.362       .  A
S559        C560   1.740       .  A
C560        C561   1.397       .  A
C561        H567   1.079       .  S
S562        C563   1.718       .  A
C563        C564   1.390       .  A
C564        H568   1.083       .  S
C569        S575   1.692       .  A
C569        C574   1.382       .  A
C569        C570   1.396       .  A
C570        C571   1.397       .  A
C570        H581   1.083       .  S
C571        C580   1.364       .  A
C571        C572   1.386       .  A
C572        S578   1.714       .  A
C572        C573   1.406       .  A
C573        C574   1.408       .  A
C573        H582   1.083       .  S
C574        C577   1.375       .  A
S575        C576   1.736       .  A
C576        C577   1.401       .  A
C577        H583   1.080       .  S
S578        C579   1.725       .  A
C579        C580   1.383       .  A
C580        H584   1.083       .  S
C585        S591   1.716       .  A
C585        C590   1.386       .  A
C585        C586   1.407       .  A
C586        C587   1.408       .  A
C586        H597   1.083       .  S
C587        C596   1.376       .  A
C587        C588   1.385       .  A
C588        S594   1.697       .  A
C588        C589   1.397       .  A
C589        C590   1.398       .  A
C589        H598   1.083       .  S
C590        C593   1.366       .  A
S591        C592   1.725       .  A
C592        C593   1.384       .  A
C593        H599   1.083       .  S
S594        C595   1.732       .  A
C595        C596   1.398       .  A
C596        H600   1.083       .  S
