geometry optimzed in LAMMPS
_audit_creation_date              2020-11-30 
_audit_creation_method            'lammps2cif' 
_symmetry_space_group_name_H-M    'P1' 
_symmetry_Int_Tables_number       1 
_symmetry_cell_setting            triclinic 
loop_ 
_symmetry_equiv_pos_as_xyz 
  x,y,z 
_cell_length_a                    28.32364334 
_cell_length_b                    28.572074098720794 
_cell_length_c                    26.54936181209658 
_cell_angle_alpha                 90.03991577101894 
_cell_angle_beta                  89.77827975747898 
_cell_angle_gamma                 89.95854466627353 
loop_ 
_atom_site_label 
_atom_site_type_symbol 
_atom_site_fract_x 
_atom_site_fract_y 
_atom_site_fract_z 
_atom_site_charge 
C1          C  0.33257470  0.32847755  0.17465339    -0.02700
C2          C  0.32086186  0.14007180  0.43510656    -0.02700
C3          C  0.09567242  0.11208013  0.16676801    -0.02700
C4          C  0.09353982  0.37318345  0.41356803    -0.02700
C5          C  0.31238823  0.12454076  0.66690767    -0.02700
C6          C  0.10102985  0.08937908  0.91086481    -0.02700
C7          C  0.10041894  0.37464999  0.68129662    -0.02700
C8          C  0.32893339  0.33660633  0.92243166    -0.02700
O9          O  0.53772194  0.41582361  0.15208472    -0.75500
O10         O  0.50492533  0.35260620  0.11414847    -0.54400
C11         C  0.53371113  0.37215943  0.14643924     0.78200
O12         O  0.33852269  0.55490188  0.12303214    -0.60100
O13         O  0.39241173  0.61182942  0.11070623    -0.53200
C14         C  0.35456161  0.59540714  0.13260771     0.70200
O15         O  0.35454169  0.40609910  0.15131672    -0.74700
O16         O  0.38853039  0.34629523  0.10703100    -0.55300
C17         C  0.35956914  0.36249734  0.14080401     0.76200
O18         O  0.54694073  0.56178717  0.13606956    -0.59800
O19         O  0.50396983  0.61865185  0.09745047    -0.53000
C20         C  0.53751403  0.60467367  0.12709845     0.72800
Zr21       Zr  0.51647454  0.48647363  0.11463513     2.54700
O22         O  0.52942800  0.48855228  0.20512235    -0.80400
O23         O  0.59888267  0.48818784  0.08743708    -0.93800
Zr24       Zr  0.38082355  0.48243001  0.12457759     2.64700
O25         O  0.39922665  0.48968730  0.21383440    -0.98800
O26         O  0.29573388  0.47347568  0.13323653    -0.80800
O27         O  0.44973142  0.43692033  0.12190381    -0.84200
O28         O  0.44797671  0.53229637  0.12128961    -2.18900
O29         O  0.54048947  0.54824679  0.94933644    -0.67600
O30         O  0.50913577  0.61153797  0.98860315    -0.52100
C31         C  0.53888845  0.59219631  0.95704122     0.71200
O32         O  0.33683096  0.40535415  0.97080385    -0.60500
O33         O  0.39428440  0.35156037  0.98284985    -0.52500
C34         C  0.35594687  0.36642964  0.96061414     0.73000
O35         O  0.34115832  0.55493792  0.95853263    -0.71900
O36         O  0.38422876  0.61452587  0.99273724    -0.50600
C37         C  0.34942912  0.59853190  0.96590556     0.74400
O38         O  0.54358362  0.39862756  0.95954106    -0.67200
O39         O  0.50511087  0.34089569  0.00175441    -0.54400
C40         C  0.53820079  0.35559240  0.97186712     0.72800
Zr41       Zr  0.50804724  0.47483234  0.97037687     2.77500
O42         O  0.49023509  0.47297225  0.88076443    -0.98000
O43         O  0.59145478  0.46617768  0.95135780    -0.78800
Zr44       Zr  0.37381486  0.47962006  0.97960911     2.70100
O45         O  0.38580732  0.48239198  0.88862286    -0.80000
O46         O  0.28817965  0.47277345  0.98516446    -0.99100
Zr47       Zr  0.44621547  0.38499835  0.05127923     2.21500
Zr48       Zr  0.44589529  0.57674607  0.04476641     2.11100
O49         O  0.44209975  0.52608377  0.97238581    -2.47800
O50         O  0.44000774  0.42846803  0.97425648    -0.79800
O51         O  0.51351960  0.52743734  0.03913637    -0.72000
O52         O  0.37813985  0.43409623  0.05382726    -2.33000
O53         O  0.51422075  0.43389901  0.04661086    -2.29200
O54         O  0.37769177  0.52802576  0.05061890    -0.73800
H55         H  0.44956381  0.55212927  0.15066511     0.78200
H56         H  0.34992841  0.41543821  0.05703601     0.79300
H57         H  0.44103246  0.54445210  0.94187193     0.81500
H58         H  0.54281683  0.41560266  0.04819534     0.79100
H59         H  0.28440019  0.46753721  0.09859943     0.42200
H60         H  0.27825296  0.49768971  0.00885878     0.41100
H61         H  0.39921344  0.45143704  0.87987275     0.40800
H62         H  0.51846183  0.48666506  0.86432809     0.38800
H63         H  0.60740134  0.46978796  0.98424427     0.41900
H64         H  0.60869536  0.45516792  0.08324902     0.36700
H65         H  0.49867984  0.47958116  0.22009825     0.42800
H66         H  0.39843056  0.52360644  0.22098076     0.39200
H67         H  0.49119167  0.43941890  0.87155587     0.44100
H68         H  0.61687047  0.49978693  0.11680025     0.42800
H69         H  0.37180192  0.47635723  0.23205677     0.43000
H70         H  0.27568816  0.48224655  0.95203075     0.43300
C71         C  0.32485146  0.62533540  0.16884070    -0.02700
C72         C  0.09912943  0.87888730  0.18484022    -0.02700
C73         C  0.09242162  0.59643706  0.41236394    -0.02700
C74         C  0.29924393  0.84652643  0.42799375    -0.02700
O75         O  0.33933726  0.06310392  0.46209267    -0.75500
O76         O  0.38819953  0.11961130  0.49189158    -0.54400
C77         C  0.35183779  0.10576788  0.46572586     0.78200
O78         O  0.34663444  0.89644189  0.64147315    -0.60100
O79         O  0.38090862  0.83993035  0.59326108    -0.53200
C80         C  0.35182917  0.85335784  0.62782527     0.70200
O81         O  0.34593163  0.05076385  0.64850545    -0.74700
O82         O  0.37862969  0.11159938  0.60519548    -0.55300
C83         C  0.34879043  0.09421534  0.63790698     0.76200
O84         O  0.33761441  0.91721919  0.44734278    -0.59800
O85         O  0.36765909  0.85392246  0.48774377    -0.53000
C86         C  0.33802519  0.87359495  0.45662104     0.72800
Zr87       Zr  0.37270205  0.98742009  0.47381130     2.54700
O88         O  0.28800107  0.99846934  0.46613475    -0.80400
O89         O  0.38731743  0.98811523  0.38334073    -0.93800
Zr90       Zr  0.37084600  0.97630758  0.61971388     2.64700
O91         O  0.28597727  0.97902811  0.60570453    -0.98800
O92         O  0.36736655  0.97347192  0.71131923    -0.80800
O93         O  0.37349508  0.02819842  0.55024938    -0.84200
O94         O  0.36796940  0.93610127  0.54337880    -2.18900
O95         O  0.53549799  0.90263283  0.45145433    -0.67600
O96         O  0.49068708  0.84435752  0.48502117    -0.52100
C97         C  0.52557095  0.85946351  0.45778632     0.71200
O98         O  0.54264835  0.04817622  0.63754847    -0.60500
O99         O  0.49954534  0.11072356  0.61113097    -0.52500
C100        C  0.53444966  0.09203201  0.63577507     0.73000
O101        O  0.53458223  0.89963627  0.63745539    -0.71900
O102        O  0.48733677  0.84486732  0.60112411    -0.50600
C103        C  0.52135664  0.85768297  0.63093087     0.74400
O104        O  0.53847312  0.05206625  0.45278754    -0.67200
O105        O  0.50735494  0.11257861  0.49750431    -0.54400
C106        C  0.53697713  0.09522808  0.46435869     0.72800
Zr107      Zr  0.50656448  0.97866053  0.47345152     2.77500
O108        O  0.59235954  0.97381144  0.47871803    -0.98000
O109        O  0.50305989  0.98121534  0.38191984    -0.78800
Zr110      Zr  0.50546993  0.97550404  0.61902129     2.70100
O111        O  0.59092040  0.97337573  0.62844748    -0.80000
O112        O  0.48952790  0.97538822  0.70929993    -0.99100
Zr113      Zr  0.44231570  0.07625617  0.55054973     2.21500
Zr114      Zr  0.43436593  0.88514474  0.54063122     2.11100
O115        O  0.50490953  0.93059854  0.54461114    -2.47800
O116        O  0.50827563  0.02396844  0.54771427    -0.79800
O117        O  0.43669631  0.93452978  0.46791885    -0.72000
O118        O  0.43919047  0.02484509  0.62289777    -2.33000
O119        O  0.44219546  0.03190322  0.47373262    -2.29200
O120        O  0.43739855  0.92775312  0.61832150    -0.73800
H121        H  0.33887206  0.91866493  0.54293073     0.78200
H122        H  0.43967811  0.04270861  0.65381639     0.79300
H123        H  0.53245836  0.91071774  0.54444701     0.81500
H124        H  0.44341755  0.05228144  0.44466660     0.79100
H125        H  0.33397192  0.96612834  0.71917321     0.42200
H126        H  0.46989956  0.94722571  0.71502803     0.41100
H127        H  0.60339170  0.98123696  0.59460651     0.40800
H128        H  0.59923026  0.94861055  0.50318936     0.38800
H129        H  0.47946363  0.95714871  0.37279820     0.41900
H130        H  0.39754489  0.02034689  0.37520545     0.36700
H131        H  0.27589326  0.99712747  0.50112788     0.42800
H132        H  0.27793118  0.95160204  0.58471194     0.39200
H133        H  0.60296022  0.96116402  0.44582275     0.44100
H134        H  0.35574240  0.98479511  0.36786248     0.42800
H135        H  0.27218394  0.97192667  0.63905855     0.43000
H136        H  0.52010611  0.96781977  0.72522535     0.43300
C137        C  0.57452594  0.32098764  0.95013008    -0.02700
C138        C  0.79176369  0.35841136  0.67279648    -0.02700
C139        C  0.57022749  0.12226721  0.66425940    -0.02700
C140        C  0.79186321  0.10052582  0.92006770    -0.02700
C141        C  0.31599079  0.63294802  0.93962090    -0.02700
C142        C  0.32358732  0.81582211  0.65638941    -0.02700
C143        C  0.09716447  0.59662540  0.67862955    -0.02700
C144        C  0.10001695  0.86637412  0.92404516    -0.02700
C145        C  0.55779998  0.82465057  0.43088391    -0.02700
C146        C  0.77975898  0.60666232  0.44110492    -0.02700
C147        C  0.56836706  0.64070381  0.15404339    -0.02700
C148        C  0.78697862  0.86854283  0.17026350    -0.02700
C149        C  0.57530669  0.61939081  0.92387038    -0.02700
C150        C  0.78904743  0.58679198  0.69342810    -0.02700
C151        C  0.54677581  0.82108069  0.66176386    -0.02700
C152        C  0.80457418  0.85259951  0.92916865    -0.02700
O153        O  0.01747147  0.08284455  0.15033744    -0.75500
O154        O  0.07726854  0.04692771  0.10738785    -0.54400
C155        C  0.06121243  0.07772136  0.14004321     0.78200
O156        O  0.86867693  0.88967501  0.15403268    -0.60100
O157        O  0.81154254  0.92854048  0.10989510    -0.53200
C158        C  0.82528970  0.89832303  0.14395307     0.70200
O159        O  0.02018094  0.89396278  0.15550160    -0.74700
O160        O  0.07932423  0.93127617  0.11273801    -0.55300
C161        C  0.06398954  0.90218835  0.14739804     0.76200
O162        O  0.86678908  0.07400704  0.15906477    -0.59800
O163        O  0.80899792  0.03606966  0.11526031    -0.53000
C164        C  0.82316765  0.06421033  0.15158207     0.72800
Zr165      Zr  0.94252140  0.05402095  0.12097279     2.54700
O166        O  0.94572242  0.05597771  0.21257381    -0.80400
O167        O  0.93727225  0.13788126  0.10513412    -0.93800
Zr168      Zr  0.94445866  0.91703295  0.12202202     2.64700
O169        O  0.94657867  0.92200700  0.21368871    -0.98800
O170        O  0.94372913  0.83229168  0.11202237    -0.80800
O171        O  0.99103525  0.98609543  0.12169913    -0.84200
O172        O  0.89656276  0.98486699  0.12145737    -2.18900
O173        O  0.86988893  0.07684782  0.94339758    -0.67600
O174        O  0.81017341  0.04073032  0.98626091    -0.52100
C175        C  0.82599393  0.07010944  0.95222126     0.71200
O176        O  0.02095207  0.89097628  0.94312746    -0.60500
O177        O  0.07900807  0.92822233  0.98677448    -0.52500
C178        C  0.06434535  0.89815781  0.95266609     0.73000
O179        O  0.87493628  0.89664200  0.93536595    -0.71900
O180        O  0.81570361  0.92157902  0.98756377    -0.50600
C181        C  0.83224177  0.89521997  0.95058686     0.74400
O182        O  0.02134742  0.07371532  0.93874834    -0.67200
O183        O  0.07997983  0.03840584  0.98359761    -0.54400
C184        C  0.06505230  0.06607648  0.94757849     0.72800
Zr185      Zr  0.94570984  0.05327959  0.97500630     2.77500
O186        O  0.94610884  0.05293820  0.88308758    -0.98000
O187        O  0.95016793  0.13767692  0.98645311    -0.78800
Zr188      Zr  0.94679869  0.91800433  0.97555119     2.70100
O189        O  0.95053411  0.92040154  0.88400792    -0.80000
O190        O  0.94397135  0.83360738  0.98838042    -0.99100
Zr191      Zr  0.04201064  0.98584405  0.04894196     2.21500
Zr192      Zr  0.84783869  0.98442871  0.04769374     2.11100
O193        O  0.89828247  0.98526021  0.97470291    -2.47800
O194        O  0.99400187  0.98580557  0.97510484    -0.79800
O195        O  0.89554089  0.05410531  0.04724849    -0.72000
O196        O  0.99376784  0.91677039  0.04926676    -2.33000
O197        O  0.99237940  0.05424641  0.04861475    -2.29200
O198        O  0.89748288  0.91630914  0.04804311    -0.73800
H199        H  0.87737809  0.98426708  0.15157396     0.78200
H200        H  0.01335233  0.88906761  0.04927852     0.79300
H201        H  0.87948708  0.98517147  0.94442885     0.81500
H202        H  0.01149714  0.08221662  0.04809414     0.79100
H203        H  0.97448131  0.82448947  0.09628036     0.42200
H204        H  0.91134371  0.82719398  0.99997220     0.41100
H205        H  0.95814571  0.95337016  0.87597451     0.40800
H206        H  0.91751864  0.03542914  0.87295346     0.38800
H207        H  0.91938385  0.14641030  0.00153434     0.41900
H208        H  0.96933369  0.14718735  0.09405246     0.36700
H209        H  0.92705861  0.02852151  0.22360360     0.42800
H210        H  0.91537555  0.93449364  0.22394893     0.39200
H211        H  0.93967649  0.08575433  0.87325531     0.44100
H212        H  0.93385509  0.15219920  0.13887811     0.42800
H213        H  0.94650746  0.88909318  0.22534581     0.43000
H214        H  0.94546964  0.82016244  0.95402790     0.43300
C215        C  0.57454964  0.12427283  0.43509188    -0.02700
C216        C  0.78667255  0.08567241  0.19020759    -0.02700
C217        C  0.56449054  0.34442690  0.18346518    -0.02700
C218        C  0.78605105  0.37717608  0.41743259    -0.02700
O219        O  0.01707324  0.39076851  0.44638710    -0.75500
O220        O  0.07730844  0.43186522  0.48232537    -0.54400
C221        C  0.06106119  0.40040068  0.45092784     0.78200
O222        O  0.86163391  0.58317640  0.45306692    -0.60100
O223        O  0.80545643  0.54170059  0.49598754    -0.53200
C224        C  0.81836842  0.57428064  0.46401827     0.70200
O225        O  0.01341702  0.57708394  0.43961494    -0.74700
O226        O  0.07348770  0.54195151  0.48318884    -0.55300
C227        C  0.05744775  0.57010640  0.44795749     0.76200
O228        O  0.86605087  0.39206505  0.44383122    -0.59800
O229        O  0.80792908  0.42975144  0.48795284    -0.53000
C230        C  0.82251957  0.40083815  0.45272897     0.72800
Zr231      Zr  0.94124144  0.41650514  0.47716426     2.54700
O232        O  0.94103200  0.42463435  0.38591033    -0.80400
O233        O  0.93955219  0.33143093  0.48312446    -0.93800
Zr234      Zr  0.93905069  0.55294943  0.47655419     2.64700
O235        O  0.93473659  0.54511264  0.38523549    -0.98800
O236        O  0.94064318  0.63795890  0.48357583    -0.80800
O237        O  0.98774231  0.48517081  0.47603524    -0.84200
O238        O  0.89260496  0.48413860  0.47791529    -2.18900
O239        O  0.86986255  0.38669723  0.65312266    -0.67600
O240        O  0.80958868  0.42137867  0.61044730    -0.52100
C241        C  0.82596750  0.39121087  0.64327889     0.71200
O242        O  0.01893920  0.58103365  0.64916671    -0.60500
O243        O  0.07748265  0.53805819  0.61176955    -0.52500
C244        C  0.06259438  0.57038023  0.64309286     0.73000
O245        O  0.86742019  0.57278734  0.66029876    -0.71900
O246        O  0.80759523  0.53575316  0.61900939    -0.50600
C247        C  0.82341044  0.56428338  0.65388374     0.74400
O248        O  0.02044453  0.39314353  0.65712621    -0.67200
O249        O  0.07806748  0.42829401  0.60994648    -0.54400
C250        C  0.06399082  0.40010395  0.64632235     0.72800
Zr251      Zr  0.94489232  0.41581741  0.62293769     2.77500
O252        O  0.94561541  0.41776076  0.71474910    -0.98000
O253        O  0.95021502  0.33188155  0.60789658    -0.78800
Zr254      Zr  0.94270818  0.55255656  0.62240488     2.70100
O255        O  0.94657617  0.54889680  0.71390256    -0.80000
O256        O  0.93965477  0.63701901  0.61044662    -0.99100
Zr257      Zr  0.03949077  0.48491661  0.54747322     2.21500
Zr258      Zr  0.84509462  0.48293580  0.55294742     2.11100
O259        O  0.89652260  0.48339712  0.62459552    -2.47800
O260        O  0.99108630  0.48488738  0.62162679    -0.79800
O261        O  0.89479393  0.41484914  0.55154693    -0.72000
O262        O  0.98952938  0.55331341  0.54810407    -2.33000
O263        O  0.99147828  0.41567894  0.54859789    -2.29200
O264        O  0.89263469  0.55254789  0.55123532    -0.73800
H265        H  0.87275929  0.48435099  0.44842084     0.78200
H266        H  0.00880007  0.58118956  0.54763663     0.79300
H267        H  0.87812400  0.48263949  0.65527671     0.81500
H268        H  0.01120953  0.38808919  0.54805212     0.79100
H269        H  0.96519446  0.64487203  0.50892626     0.42200
H270        H  0.90638528  0.64394206  0.60186854     0.41100
H271        H  0.97359486  0.52794380  0.72105971     0.40800
H272        H  0.91776965  0.43671578  0.72451597     0.38800
H273        H  0.91811204  0.32244871  0.59732917     0.41900
H274        H  0.96677591  0.32322749  0.50465091     0.36700
H275        H  0.96641470  0.44746879  0.37855610     0.42800
H276        H  0.90180526  0.53575216  0.37800273     0.39200
H277        H  0.93770143  0.38549665  0.72540120     0.44100
H278        H  0.94887437  0.32044274  0.44912993     0.42800
H279        H  0.93724305  0.57752647  0.37233260     0.43000
H280        H  0.94418619  0.65037421  0.64450446     0.43300
C281        C  0.74522008  0.43727613  0.29920260    -0.11100
C282        C  0.69861622  0.44572382  0.31458747     0.06100
C283        C  0.69012771  0.45469549  0.36596303    -0.09900
C284        C  0.72472348  0.44329738  0.40172967    -0.11500
C285        C  0.76479712  0.41798020  0.38576310    -0.01300
C286        C  0.77886609  0.42446610  0.33508279    -0.10400
C287        C  0.66035427  0.42609228  0.28312920     0.06100
H288        H  0.65488552  0.46346353  0.37883548     0.08000
H289        H  0.71530603  0.44453144  0.44127838     0.11500
H290        H  0.81252686  0.41123988  0.32182964     0.11700
H291        H  0.75349913  0.43242739  0.25967613     0.08000
C292        C  0.64971824  0.44344887  0.23520701    -0.11100
C293        C  0.61903021  0.41865609  0.20329331    -0.10400
C294        C  0.59683998  0.37625766  0.21869947    -0.01300
C295        C  0.61286627  0.35748388  0.26496946    -0.11500
C296        C  0.64182210  0.38266946  0.29727537    -0.09900
H297        H  0.66672568  0.47498840  0.22164813     0.08000
H298        H  0.61602205  0.43114493  0.16535562     0.11700
H299        H  0.60338820  0.32237815  0.27624714     0.11500
H300        H  0.65227751  0.36648144  0.33227309     0.08000
C301        C  0.67907175  0.27809964  0.15025632    -0.11100
C302        C  0.66002436  0.23487785  0.13723136     0.06100
C303        C  0.61167165  0.23212573  0.12595831    -0.09900
C304        C  0.58317296  0.27202572  0.12860517    -0.11500
C305        C  0.59928312  0.31129156  0.15499875    -0.01300
C306        C  0.64924725  0.31585226  0.15907679    -0.10400
C307        C  0.68951100  0.19245204  0.13991184     0.06100
H308        H  0.59622380  0.19931065  0.11397310     0.08000
H309        H  0.54693403  0.26981465  0.11609913     0.11500
H310        H  0.66627630  0.34721417  0.17227775     0.11700
H311        H  0.71644516  0.28182846  0.15776536     0.08000
C312        C  0.73643449  0.19141767  0.12249755    -0.11100
C313        C  0.76493969  0.15209050  0.13103460    -0.10400
C314        C  0.74905665  0.11507274  0.16206210    -0.01300
C315        C  0.70175163  0.11807358  0.17973887    -0.11500
C316        C  0.67210089  0.15445180  0.16665916    -0.09900
H317        H  0.75108602  0.22104602  0.10242363     0.08000
H318        H  0.80129645  0.15317500  0.11834240     0.11700
H319        H  0.68787697  0.09678727  0.20929360     0.11500
H320        H  0.63695569  0.15549139  0.18296184     0.08000
C321        C  0.77571365  0.28051101  0.31497030    -0.11100
C322        C  0.81631246  0.25293492  0.31970825     0.06100
C323        C  0.85103488  0.26805227  0.35404540    -0.09900
C324        C  0.84417014  0.30891511  0.38397963    -0.11500
C325        C  0.80269796  0.33681371  0.37969262    -0.01300
C326        C  0.76903921  0.32075387  0.34405048    -0.10400
C327        C  0.81748268  0.20624258  0.29297970     0.06100
H328        H  0.88229324  0.24690701  0.35979106     0.08000
H329        H  0.87021977  0.31606145  0.41228999     0.11500
H330        H  0.73567647  0.33868019  0.33986155     0.11700
H331        H  0.74780867  0.26986073  0.28961309     0.08000
C332        C  0.77965578  0.17567140  0.30060714    -0.11100
C333        C  0.77266157  0.13693439  0.26945972    -0.10400
C334        C  0.80430718  0.12409169  0.22988773    -0.01300
C335        C  0.84342747  0.15476213  0.22323898    -0.11500
C336        C  0.85004638  0.19482634  0.25447804    -0.09900
H337        H  0.75324965  0.18353116  0.32905324     0.08000
H338        H  0.74000750  0.11821377  0.27517644     0.11700
H339        H  0.86720134  0.15055542  0.19188770     0.11500
H340        H  0.87892388  0.21849187  0.24635872     0.08000
C341        C  0.51518781  0.24782633  0.26563486    -0.11100
C342        C  0.51280026  0.27329636  0.31037999     0.06100
C343        C  0.50795414  0.32195803  0.30864689    -0.09900
C344        C  0.51163084  0.34472069  0.26200476    -0.11500
C345        C  0.52890103  0.31951657  0.21950510    -0.01300
C346        C  0.52224786  0.27061721  0.22046637    -0.10400
C347        C  0.52738766  0.24835153  0.35537281     0.06100
H348        H  0.50489370  0.34219372  0.34299787     0.08000
H349        H  0.51144201  0.38263398  0.26180696     0.11500
H350        H  0.52517727  0.24808031  0.18860213     0.11700
H351        H  0.51620459  0.20987357  0.26631913     0.08000
C352        C  0.49439563  0.22398627  0.38459844    -0.11100
C353        C  0.50757128  0.18257910  0.40915360    -0.10400
C354        C  0.55438771  0.16600563  0.40527704    -0.01300
C355        C  0.58763259  0.19382061  0.37894610    -0.11500
C356        C  0.57459131  0.23475038  0.35558510    -0.09900
H357        H  0.45794332  0.23528184  0.38544700     0.08000
H358        H  0.48099207  0.16392436  0.43024943     0.11700
H359        H  0.62429495  0.18333461  0.37609860     0.11500
H360        H  0.60050305  0.25295008  0.33271030     0.08000
C361        C  0.67398117  0.30948080  0.45301719    -0.11100
C362        C  0.69424192  0.27177728  0.47823288     0.06100
C363        C  0.74173721  0.27438103  0.49273300    -0.09900
C364        C  0.76868495  0.31379032  0.48097971    -0.11500
C365        C  0.75028359  0.34955795  0.44995029    -0.01300
C366        C  0.70167202  0.34692978  0.43779625    -0.10400
C367        C  0.66686651  0.22825914  0.48382662     0.06100
H368        H  0.75829269  0.24549419  0.51226045     0.08000
H369        H  0.80580282  0.31336534  0.49060149     0.11500
H370        H  0.68492356  0.36984234  0.41156227     0.11700
H371        H  0.63774868  0.30776904  0.44015640     0.08000
C372        C  0.61910920  0.22945572  0.49787854    -0.11100
C373        C  0.59206719  0.18863996  0.49718921    -0.10400
C374        C  0.60939775  0.14862040  0.47175605    -0.01300
C375        C  0.65906987  0.14600024  0.46475044    -0.11500
C376        C  0.68727460  0.18544058  0.47076651    -0.09900
H377        H  0.60268653  0.26203848  0.50931148     0.08000
H378        H  0.55482439  0.19180717  0.50585459     0.11700
H379        H  0.67681266  0.11653813  0.44839640     0.11500
H380        H  0.72422066  0.18337546  0.46029597     0.08000
C381        C  0.68780652  0.01313255  0.24080564    -0.11100
C382        C  0.69641711  0.02217476  0.29219550     0.06100
C383        C  0.74380711  0.02704382  0.30708621    -0.09900
C384        C  0.77893863  0.03520877  0.27069736    -0.11500
C385        C  0.76559388  0.04312970  0.22013162    -0.01300
C386        C  0.72360572  0.02092176  0.20472157    -0.10400
C387        C  0.65753807  0.03740641  0.32709952     0.06100
H388        H  0.75283787  0.03133956  0.34638946     0.08000
H389        H  0.81360478  0.04559856  0.28361412     0.11500
H390        H  0.71408582  0.02044190  0.16526417     0.11700
H391        H  0.65232132  0.00586691  0.22797528     0.08000
C392        C  0.62235002  0.06800562  0.30959897    -0.11100
C393        C  0.59387215  0.09328664  0.34330385    -0.10400
C394        C  0.60069324  0.09050806  0.39615580    -0.01300
C395        C  0.63067511  0.05402491  0.41285336    -0.11500
C396        C  0.65951510  0.02882759  0.37915368    -0.09900
H397        H  0.61872179  0.07496404  0.26972369     0.08000
H398        H  0.56775946  0.11639799  0.32717843     0.11700
H399        H  0.63484246  0.04793103  0.45280749     0.11500
H400        H  0.68498641  0.00425787  0.39408050     0.08000
C401        C  0.63441397  0.89042165  0.75169116    -0.11100
C402        C  0.66108480  0.85265001  0.77005561     0.06100
C403        C  0.64996430  0.80761752  0.75242203    -0.09900
C404        C  0.61070625  0.79986130  0.72337583    -0.11500
C405        C  0.58559715  0.83692769  0.70102422    -0.01300
C406        C  0.59780327  0.88292095  0.71680504    -0.10400
C407        C  0.69773067  0.85764990  0.81017422     0.06100
H408        H  0.67095829  0.77714289  0.76121268     0.08000
H409        H  0.60204196  0.76386581  0.71464217     0.11500
H410        H  0.57884767  0.91350715  0.70535276     0.11700
H411        H  0.64108170  0.92566160  0.76475357     0.08000
C412        C  0.72295637  0.89942355  0.82065467    -0.11100
C413        C  0.75748817  0.90076903  0.85936605    -0.10400
C414        C  0.76834773  0.85956538  0.88592695    -0.01300
C415        C  0.74424971  0.81817996  0.87236702    -0.11500
C416        C  0.70779848  0.81816107  0.83912880    -0.09900
H417        H  0.71609782  0.93060671  0.79901659     0.08000
H418        H  0.77593744  0.93295568  0.86764457     0.11700
H419        H  0.75189125  0.78522391  0.89075097     0.11500
H420        H  0.68764059  0.78615061  0.83713512     0.08000
C421        C  0.73171688  0.69033116  0.62519925    -0.11100
C422        C  0.68450175  0.68840273  0.64173519     0.06100
C423        C  0.67143759  0.65255497  0.67453040    -0.09900
C424        C  0.70394080  0.61908241  0.68938836    -0.11500
C425        C  0.75010373  0.61692843  0.66854037    -0.01300
C426        C  0.76325142  0.65378857  0.63601805    -0.10400
C427        C  0.64828739  0.72347597  0.62693122     0.06100
H428        H  0.63656120  0.65200793  0.69144738     0.08000
H429        H  0.69288904  0.59753135  0.72041035     0.11500
H430        H  0.79915021  0.65622455  0.62211951     0.11700
H431        H  0.74426872  0.71969264  0.60344319     0.08000
C432        C  0.65928304  0.77098592  0.62057486    -0.11100
C433        C  0.62282717  0.80367866  0.61398691    -0.10400
C434        C  0.57537665  0.79013184  0.62360369    -0.01300
C435        C  0.56536994  0.74291566  0.61462535    -0.11500
C436        C  0.60118691  0.70945677  0.61910141    -0.09900
H437        H  0.69530350  0.78330098  0.62319388     0.08000
H438        H  0.63224801  0.84042950  0.61390730     0.11700
H439        H  0.53057384  0.73194271  0.60362801     0.11500
H440        H  0.59210644  0.67272654  0.61662952     0.08000
C441        C  0.79808183  0.67425765  0.80606076    -0.11100
C442        C  0.83815196  0.70132847  0.79567086     0.06100
C443        C  0.86354282  0.69125941  0.75133200    -0.09900
C444        C  0.84998191  0.65381773  0.71945765    -0.11500
C445        C  0.81109898  0.62413892  0.73118334    -0.01300
C446        C  0.78422994  0.63790356  0.77409555    -0.10400
C447        C  0.85047959  0.74061168  0.83105313     0.06100
H448        H  0.89355484  0.71268243  0.74093614     0.08000
H449        H  0.86867580  0.65061071  0.68435316     0.11500
H450        H  0.75105388  0.62107927  0.78286938     0.11700
H451        H  0.77613521  0.68235444  0.83845171     0.08000
C452        C  0.85587356  0.78724118  0.81514331    -0.11100
C453        C  0.85282868  0.82437094  0.85041285    -0.10400
C454        C  0.84002890  0.81595113  0.90181780    -0.01300
C455        C  0.84841027  0.76923794  0.91762901    -0.11500
C456        C  0.85111252  0.73225720  0.88298701    -0.09900
H457        H  0.85789777  0.79528940  0.77534928     0.08000
H458        H  0.85182243  0.85972903  0.83578671     0.11700
H459        H  0.85260612  0.75930305  0.95603266     0.11500
H460        H  0.85164649  0.69663984  0.89695528     0.08000
C461        C  0.49346609  0.71646420  0.87222554    -0.11100
C462        C  0.52185786  0.73398832  0.83373342     0.06100
C463        C  0.56801806  0.71804729  0.82821036    -0.09900
C464        C  0.58382676  0.68126984  0.85709586    -0.11500
C465        C  0.55317073  0.65768396  0.89078721    -0.01300
C466        C  0.50778173  0.67686121  0.89890498    -0.10400
C467        C  0.50138960  0.75743226  0.79052702     0.06100
H468        H  0.59088257  0.73199980  0.79918424     0.08000
H469        H  0.62005633  0.67000709  0.85196963     0.11500
H470        H  0.48335033  0.66271663  0.92600912     0.11700
H471        H  0.45934795  0.73186599  0.87963051     0.08000
C472        C  0.49566759  0.73073060  0.74680466    -0.11100
C473        C  0.49738385  0.75232505  0.70009515    -0.10400
C474        C  0.50854957  0.80013107  0.69728401    -0.01300
C475        C  0.49713795  0.82733248  0.74056460    -0.11500
C476        C  0.49833966  0.80607096  0.78791965    -0.09900
H477        H  0.49421592  0.69286328  0.74872931     0.08000
H478        H  0.49226036  0.73046574  0.66802298     0.11700
H479        H  0.49973133  0.86511424  0.73922187     0.11500
H480        H  0.50098302  0.82730855  0.82158683     0.08000
C481        C  0.69271950  0.50616831  0.73850687    -0.11100
C482        C  0.69875886  0.51364756  0.79060478     0.06100
C483        C  0.74495142  0.52225835  0.80773905    -0.09900
C484        C  0.78014449  0.53562702  0.77355380    -0.11500
C485        C  0.76789816  0.54439351  0.72301514    -0.01300
C486        C  0.72829331  0.51984618  0.70452383    -0.10400
C487        C  0.65772132  0.52562830  0.82398197     0.06100
H488        H  0.75253894  0.52537030  0.84749633     0.08000
H489        H  0.81357173  0.54759637  0.78839428     0.11500
H490        H  0.71998895  0.52068441  0.66476295     0.11700
H491        H  0.65869848  0.49584238  0.72376892     0.08000
C492        C  0.61979862  0.55161709  0.80437667    -0.11100
C493        C  0.59097796  0.57858609  0.83603149    -0.10400
C494        C  0.60045486  0.58225121  0.88823546    -0.01300
C495        C  0.63193376  0.54858938  0.90814570    -0.11500
C496        C  0.66079937  0.52137096  0.87659473    -0.09900
H497        H  0.61467355  0.55470013  0.76415099     0.08000
H498        H  0.56299449  0.59852821  0.81863503     0.11700
H499        H  0.63745792  0.54676790  0.94844707     0.11500
H500        H  0.68774372  0.49960507  0.89345590     0.08000
C501        C  0.69115130  0.68156495  0.95706635    -0.11100
C502        C  0.67330510  0.72423942  0.97430227     0.06100
C503        C  0.62471946  0.72780959  0.98402379    -0.09900
C504        C  0.59533578  0.68878179  0.97944018    -0.11500
C505        C  0.61164462  0.64774147  0.95527633    -0.01300
C506        C  0.66108304  0.64451069  0.94662773    -0.10400
C507        C  0.70594266  0.76416501  0.98201753     0.06100
H508        H  0.60932779  0.76044731  0.99654408     0.08000
H509        H  0.55810807  0.69335140  0.98737630     0.11500
H510        H  0.67785207  0.61625779  0.92699596     0.11700
H511        H  0.72821384  0.67778513  0.94768357     0.08000
C512        C  0.75271885  0.75627407  0.99792931    -0.11100
C513        C  0.78477119  0.79332296  0.99929946    -0.10400
C514        C  0.77359412  0.83439121  0.97403150    -0.01300
C515        C  0.72499970  0.84668150  0.97544869    -0.11500
C516        C  0.69133532  0.81078253  0.97496624    -0.09900
H517        H  0.76400644  0.72210769  0.01072759     0.08000
H518        H  0.81910080  0.78898326  0.01618743     0.11700
H519        H  0.71379687  0.88126632  0.96379762     0.11500
H520        H  0.65519657  0.81932896  0.96571129     0.08000
C521        C  0.67493652  0.68545359  0.08707013    -0.11100
C522        C  0.66430524  0.73363924  0.09249474     0.06100
C523        C  0.61637648  0.74661077  0.09431313    -0.09900
C524        C  0.58157443  0.71243651  0.09785856    -0.11500
C525        C  0.59507954  0.66688611  0.11173126    -0.01300
C526        C  0.63989378  0.65187268  0.09570744    -0.10400
C527        C  0.70210098  0.76960809  0.09782031     0.06100
H528        H  0.60516873  0.78270884  0.09544651     0.08000
H529        H  0.54520450  0.72371125  0.10151481     0.11500
H530        H  0.65005969  0.61546727  0.09911559     0.11700
H531        H  0.71041637  0.67329984  0.07972346     0.08000
C532        C  0.74806449  0.75668866  0.11217965    -0.11100
C533        C  0.78156451  0.79091596  0.12221862    -0.10400
C534        C  0.76704876  0.83809657  0.12676815    -0.01300
C535        C  0.72798139  0.85102477  0.09829813    -0.11500
C536        C  0.69351266  0.81748088  0.08797636    -0.09900
H537        H  0.75811462  0.72067012  0.11813648     0.08000
H538        H  0.81563883  0.77968684  0.13614526     0.11700
H539        H  0.72185197  0.88732106  0.08873723     0.11500
H540        H  0.66084732  0.82939622  0.07152900     0.08000
C541        C  0.61358405  0.56694856  0.26785776    -0.11100
C542        C  0.65997530  0.58293944  0.27441481     0.06100
C543        C  0.67663630  0.61827961  0.24246216    -0.09900
C544        C  0.64779793  0.63691245  0.20469908    -0.11500
C545        C  0.60233172  0.61844005  0.19439966    -0.01300
C546        C  0.58515862  0.58488560  0.22921859    -0.10400
C547        C  0.68722868  0.57077884  0.32043067     0.06100
H548        H  0.71086242  0.63400202  0.24911893     0.08000
H549        H  0.66079502  0.66769251  0.18579288     0.11500
H550        H  0.54881733  0.57357051  0.22783135     0.11700
H551        H  0.59871620  0.54169085  0.29385482     0.08000
C552        C  0.66680300  0.57931009  0.36740074    -0.11100
C553        C  0.69469661  0.58291054  0.41036698    -0.10400
C554        C  0.74458152  0.57744340  0.40815475    -0.01300
C555        C  0.76281076  0.55879218  0.36246796    -0.11500
C556        C  0.73511896  0.55804393  0.31852652    -0.09900
H557        H  0.62979246  0.58867699  0.37014953     0.08000
H558        H  0.67572911  0.59589184  0.44215117     0.11700
H559        H  0.80040636  0.55275222  0.35855008     0.11500
H560        H  0.75170645  0.55021105  0.28268408     0.08000
C561        C  0.76268412  0.76815672  0.26348155    -0.11100
C562        C  0.80510782  0.75858159  0.28841461     0.06100
C563        C  0.84511246  0.78551969  0.27443181    -0.09900
C564        C  0.84198079  0.82122759  0.23692639    -0.11500
C565        C  0.79839103  0.83122119  0.21310202    -0.01300
C566        C  0.75903953  0.80425784  0.22910482    -0.10400
C567        C  0.80434925  0.72178879  0.32956174     0.06100
H568        H  0.87856806  0.77948494  0.29288706     0.08000
H569        H  0.87334270  0.84083180  0.22779590     0.11500
H570        H  0.72460147  0.80985218  0.21255157     0.11700
H571        H  0.73125436  0.74754268  0.27025213     0.08000
C572        C  0.76236032  0.71555267  0.35689750    -0.11100
C573        C  0.75625708  0.67804632  0.38928485    -0.10400
C574        C  0.79325625  0.64666479  0.40174517    -0.01300
C575        C  0.83661626  0.65362891  0.37568550    -0.11500
C576        C  0.84183181  0.69045019  0.33979712    -0.09900
H577        H  0.73291030  0.73939473  0.35277728     0.08000
H578        H  0.72179058  0.67452719  0.40662090     0.11700
H579        H  0.86600219  0.63021210  0.38070901     0.11500
H580        H  0.87469137  0.69352307  0.31912355     0.08000
C581        C  0.47614309  0.78968573  0.32392871    -0.11100
C582        C  0.49429845  0.74562268  0.31173790     0.06100
C583        C  0.52758616  0.72440162  0.34280974    -0.09900
C584        C  0.54754424  0.74961893  0.38132888    -0.11500
C585        C  0.52886216  0.79323126  0.39621667    -0.01300
C586        C  0.49148888  0.81227166  0.36746717    -0.10400
C587        C  0.49568097  0.72975821  0.26004954     0.06100
H588        H  0.54428341  0.69177620  0.33166299     0.08000
H589        H  0.58011439  0.73602172  0.39646263     0.11500
H590        H  0.47759144  0.84679875  0.37535267     0.11700
H591        H  0.45198947  0.80728826  0.29869422     0.08000
C592        C  0.47715036  0.68584422  0.24814337    -0.11100
C593        C  0.49612800  0.65963415  0.20882597    -0.10400
C594        C  0.53827160  0.67437655  0.18549230    -0.01300
C595        C  0.55803978  0.71739482  0.20108344    -0.11500
C596        C  0.53390789  0.74710818  0.23283093    -0.09900
H597        H  0.45238863  0.66940003  0.27317403     0.08000
H598        H  0.48149900  0.62531027  0.20170504     0.11700
H599        H  0.59344452  0.72756632  0.19054659     0.11500
H600        H  0.55103497  0.77937692  0.24421790     0.08000
C601        C  0.67119371  0.85013708  0.35155364    -0.11100
C602        C  0.65786068  0.88912216  0.32309916     0.06100
C603        C  0.61173392  0.90626671  0.32789707    -0.09900
C604        C  0.58005229  0.88566397  0.36176304    -0.11500
C605        C  0.59388348  0.84847445  0.39379318    -0.01300
C606        C  0.63923697  0.82909380  0.38468425    -0.10400
C607        C  0.68871784  0.90472796  0.28139720     0.06100
H608        H  0.59970800  0.93466030  0.30414055     0.08000
H609        H  0.54421607  0.89845839  0.36180116     0.11500
H610        H  0.65005905  0.79660304  0.40193899     0.11700
H611        H  0.70543613  0.83402461  0.34570701     0.08000
C612        C  0.73663228  0.91499905  0.28876486    -0.11100
C613        C  0.76751009  0.91727643  0.24734238    -0.10400
C614        C  0.75216662  0.90180549  0.19930557    -0.01300
C615        C  0.70260653  0.90266332  0.19162445    -0.11500
C616        C  0.67151099  0.90293454  0.23230685    -0.09900
H617        H  0.75055666  0.91850233  0.32650647     0.08000
H618        H  0.80491444  0.92078594  0.25483555     0.11700
H619        H  0.68569071  0.89949388  0.15604693     0.11500
H620        H  0.63422502  0.89760723  0.22536574     0.08000
C621        C  0.73937612  0.71354612  0.50609488    -0.11100
C622        C  0.69213266  0.70028146  0.51513830     0.06100
C623        C  0.68379530  0.65226705  0.52521070    -0.09900
C624        C  0.71859784  0.61872750  0.51382318    -0.11500
C625        C  0.75914410  0.63315209  0.48777342    -0.01300
C626        C  0.77370467  0.67956226  0.49716216    -0.10400
C627        C  0.65259647  0.73507308  0.50955234     0.06100
H628        H  0.64998054  0.64000626  0.53870125     0.08000
H629        H  0.70993577  0.58190176  0.51658533     0.11500
H630        H  0.80846988  0.69126097  0.48560070     0.11700
H631        H  0.74995004  0.74954914  0.50164836     0.08000
C632        C  0.66136275  0.78376820  0.50796987    -0.11100
C633        C  0.62635095  0.81500065  0.49250697    -0.10400
C634        C  0.58371065  0.79763386  0.47320338    -0.01300
C635        C  0.57077109  0.75201392  0.48759362    -0.11500
C636        C  0.60558961  0.72024486  0.50237613    -0.09900
H637        H  0.69520181  0.79836446  0.51784808     0.08000
H638        H  0.63544860  0.85158911  0.48804672     0.11700
H639        H  0.53567646  0.73886684  0.47997776     0.11500
H640        H  0.59557511  0.68390598  0.50528288     0.08000
C641        C  0.08759088  0.72755685  0.72058990    -0.11100
C642        C  0.05812065  0.72482834  0.76302664     0.06100
C643        C  0.02928784  0.68483511  0.76734253    -0.09900
C644        C  0.03591295  0.64598855  0.73458554    -0.11500
C645        C  0.07456823  0.64426552  0.70030501    -0.01300
C646        C  0.09438349  0.68887786  0.68899413    -0.10400
C647        C  0.06407098  0.76045306  0.80459302     0.06100
H648        H  0.00383257  0.68231888  0.79774123     0.08000
H649        H  0.01317961  0.61595155  0.73930774     0.11500
H650        H  0.11828191  0.69394377  0.65768180     0.11700
H651        H  0.10795232  0.75899265  0.71355604     0.08000
C652        C  0.10994321  0.76999993  0.82091124    -0.11100
C653        C  0.11877224  0.80324862  0.85807817    -0.10400
C654        C  0.08253179  0.83025310  0.88143894    -0.01300
C655        C  0.03572106  0.82027983  0.86501055    -0.11500
C656        C  0.02676463  0.78550965  0.82763756    -0.09900
H657        H  0.13965620  0.75104555  0.80507159     0.08000
H658        H  0.15515545  0.80755798  0.86944267     0.11700
H659        H  0.00547918  0.83815722  0.88023172     0.11500
H660        H  0.99075050  0.77889807  0.81608526     0.08000
C661        C  0.22074031  0.64961600  0.66553466    -0.11100
C662        C  0.22529102  0.65648032  0.61384520     0.06100
C663        C  0.19337733  0.63456597  0.58116446    -0.09900
C664        C  0.15292378  0.61211570  0.60035909    -0.11500
C665        C  0.14438504  0.61148146  0.65275363    -0.01300
C666        C  0.18037097  0.62908174  0.68465170    -0.10400
C667        C  0.24814323  0.70053962  0.59966152     0.06100
H668        H  0.19769566  0.63850491  0.54094939     0.08000
H669        H  0.12715496  0.59911418  0.57401450     0.11500
H670        H  0.17522941  0.63035670  0.72506627     0.11700
H671        H  0.24464977  0.66678198  0.69147523     0.08000
C672        C  0.22270315  0.74143349  0.60991587    -0.11100
C673        C  0.24645929  0.78301004  0.61862249    -0.10400
C674        C  0.29637758  0.78382486  0.61898251    -0.01300
C675        C  0.31927762  0.74748538  0.59232880    -0.11500
C676        C  0.29634926  0.70389834  0.58787402    -0.09900
H677        H  0.18497241  0.74006208  0.61669379     0.08000
H678        H  0.22535388  0.81231232  0.63089276     0.11700
H679        H  0.35703273  0.74890795  0.58588289     0.11500
H680        H  0.31647110  0.67292253  0.57819640     0.08000
C681        C  0.14859788  0.91105651  0.80308600    -0.11100
C682        C  0.19553984  0.89624982  0.80859799     0.06100
C683        C  0.21432761  0.89387522  0.85707239    -0.09900
C684        C  0.18478267  0.89523556  0.89898207    -0.11500
C685        C  0.13515566  0.89763841  0.89317496    -0.01300
C686        C  0.11916903  0.91450952  0.84582636    -0.10400
C687        C  0.22309200  0.87528535  0.76667907     0.06100
H688        H  0.25139895  0.88590873  0.86239577     0.08000
H689        H  0.20229400  0.88924995  0.93386690     0.11500
H690        H  0.08179604  0.92021625  0.83983485     0.11700
H691        H  0.13350215  0.91521638  0.76595334     0.08000
C692        C  0.24294837  0.83081798  0.77363426    -0.11100
C693        C  0.27300735  0.81159924  0.73762800    -0.10400
C694        C  0.28664855  0.83722355  0.69435116    -0.01300
C695        C  0.26070161  0.87852518  0.68439110    -0.11500
C696        C  0.22998319  0.89782101  0.72048104    -0.09900
H697        H  0.23543190  0.81089156  0.80744310     0.08000
H698        H  0.28648864  0.77679482  0.74461953     0.11700
H699        H  0.26287285  0.89482692  0.64795862     0.11500
H700        H  0.21187463  0.93012154  0.71243165     0.08000
C701        C  0.12993301  0.56139418  0.81175728    -0.11100
C702        C  0.17655333  0.54906167  0.80087678     0.06100
C703        C  0.18741819  0.53311066  0.75232276    -0.09900
C704        C  0.15340238  0.53468050  0.71425358    -0.11500
C705        C  0.11201172  0.56170748  0.72161157    -0.01300
C706        C  0.09766196  0.56711560  0.77250304    -0.10400
C707        C  0.21461353  0.56421432  0.83501836     0.06100
H708        H  0.22325902  0.52310345  0.74289713     0.08000
H709        H  0.16449841  0.52527604  0.67649170     0.11500
H710        H  0.06316244  0.57867505  0.78322661     0.11700
H711        H  0.11990925  0.57193218  0.84951711     0.08000
C712        C  0.24634270  0.59764639  0.81747436    -0.11100
C713        C  0.27849154  0.61847637  0.84976923    -0.10400
C714        C  0.28083724  0.60710168  0.90206450    -0.01300
C715        C  0.25038368  0.57051417  0.91788879    -0.11500
C716        C  0.21699611  0.55028139  0.88543518    -0.09900
H717        H  0.24522823  0.60915332  0.77861003     0.08000
H718        H  0.30085708  0.64384436  0.83173418     0.11700
H719        H  0.25213272  0.55706755  0.95556329     0.11500
H720        H  0.19312631  0.52376028  0.89965291     0.08000
C721        C  0.27064996  0.74193724  0.00232093    -0.11100
C722        C  0.22248997  0.73046060  0.00600111     0.06100
C723        C  0.21069762  0.68281141  0.00971143    -0.09900
C724        C  0.24374218  0.64852946  0.99788056    -0.11500
C725        C  0.28922796  0.66108572  0.98141309    -0.01300
C726        C  0.30432017  0.70651230  0.99537340    -0.10400
C727        C  0.18470132  0.76661295  0.00161129     0.06100
H728        H  0.17548547  0.67159833  0.01985895     0.08000
H729        H  0.23197406  0.61304189  0.99994490     0.11500
H730        H  0.34086495  0.71677723  0.99058738     0.11700
H731        H  0.28240775  0.77792676  0.00228355     0.08000
C732        C  0.19239927  0.81446614  0.01220323    -0.11100
C733        C  0.15912041  0.84812950  0.99711741    -0.10400
C734        C  0.12192955  0.83453118  0.96545854    -0.01300
C735        C  0.10770194  0.78732593  0.96941024    -0.11500
C736        C  0.13990382  0.75357188  0.98391927    -0.09900
H737        H  0.22417952  0.82601175  0.03091577     0.08000
H738        H  0.16576772  0.88475657  0.00471299     0.11700
H739        H  0.07449539  0.77532142  0.95404502     0.11500
H740        H  0.13028523  0.71755348  0.97719258     0.08000
C741        C  0.34294919  0.73657294  0.85356427    -0.11100
C742        C  0.38077034  0.71970673  0.82537847     0.06100
C743        C  0.40057314  0.67597673  0.83708006    -0.09900
C744        C  0.38449426  0.65089044  0.87889455    -0.11500
C745        C  0.34505502  0.66697040  0.90672639    -0.01300
C746        C  0.32366307  0.70942015  0.89106503    -0.10400
C747        C  0.38970290  0.74272392  0.77724443     0.06100
H748        H  0.42811623  0.66117139  0.81354866     0.08000
H749        H  0.39983185  0.61685347  0.88604440     0.11500
H750        H  0.28901084  0.71974758  0.90410022     0.11700
H751        H  0.32433621  0.76805157  0.84238408     0.08000
C752        C  0.38099572  0.71700052  0.73399938    -0.11100
C753        C  0.36484755  0.73951007  0.69139181    -0.10400
C754        C  0.35992888  0.78906492  0.68973141    -0.01300
C755        C  0.38064452  0.81445611  0.72963742    -0.11500
C756        C  0.39217152  0.79163468  0.77432975    -0.09900
H757        H  0.37906522  0.67911232  0.73548174     0.08000
H758        H  0.35149963  0.71538584  0.66460601     0.11700
H759        H  0.37942460  0.85234077  0.72998202     0.11500
H760        H  0.39906850  0.81220110  0.80778802     0.08000
C761        C  0.73770249  0.02339085  0.81912334    -0.11100
C762        C  0.69126926  0.04089269  0.81802649     0.06100
C763        C  0.67409847  0.06446731  0.86038476    -0.09900
C764        C  0.70488708  0.07902386  0.89802122    -0.11500
C765        C  0.75376428  0.06824231  0.89569575    -0.01300
C766        C  0.76790262  0.03455958  0.85947085    -0.10400
C767        C  0.66572219  0.04877290  0.77002807     0.06100
H768        H  0.63837149  0.07811385  0.86066194     0.08000
H769        H  0.69017579  0.10355571  0.92451261     0.11500
H770        H  0.80467788  0.02441675  0.85673355     0.11700
H771        H  0.75210402  0.00548442  0.78656143     0.08000
C772        C  0.68352765  0.08286912  0.73728074    -0.11100
C773        C  0.65413994  0.10538929  0.70271484    -0.10400
C774        C  0.60640277  0.09190943  0.69574016    -0.01300
C775        C  0.58955783  0.05613551  0.72840344    -0.11500
C776        C  0.61855017  0.03501147  0.76467296    -0.09900
H777        H  0.71893414  0.09625256  0.74252540     0.08000
H778        H  0.66862756  0.13631229  0.68552878     0.11700
H779        H  0.55260592  0.04688112  0.72881674     0.11500
H780        H  0.60311924  0.01051895  0.79114644     0.08000
C781        C  0.74491289  0.24290724  0.62082677    -0.11100
C782        C  0.70049188  0.25707953  0.60371754     0.06100
C783        C  0.69415243  0.30489970  0.59201529    -0.09900
C784        C  0.72965028  0.33772831  0.60331525    -0.11500
C785        C  0.76745410  0.32443242  0.63432826    -0.01300
C786        C  0.77864713  0.27599176  0.63366641    -0.10400
C787        C  0.66146199  0.22216847  0.60089148     0.06100
H788        H  0.66197190  0.31692565  0.57438989     0.08000
H789        H  0.72427966  0.37412962  0.59361396     0.11500
H790        H  0.81152028  0.26267913  0.64828255     0.11700
H791        H  0.75285135  0.20649301  0.62805838     0.08000
C792        C  0.67074913  0.17442835  0.59097564    -0.11100
C793        C  0.63621009  0.14046704  0.60029985    -0.10400
C794        C  0.59385392  0.15388956  0.62382358    -0.01300
C795        C  0.57995970  0.20111647  0.61808657    -0.11500
C796        C  0.61451593  0.23537785  0.61082173    -0.09900
H797        H  0.70531382  0.16296501  0.57863564     0.08000
H798        H  0.64585687  0.10385876  0.59770867     0.11700
H799        H  0.54488068  0.21233509  0.62913261     0.11500
H800        H  0.60490250  0.27173124  0.61590439     0.08000
C801        C  0.87226147  0.26845067  0.74952957    -0.11100
C802        C  0.83760805  0.24723197  0.78005456     0.06100
C803        C  0.79212049  0.26605142  0.77953573    -0.09900
C804        C  0.78013474  0.30199583  0.74692099    -0.11500
C805        C  0.81344660  0.32423084  0.71464084    -0.01300
C806        C  0.86054689  0.30646251  0.71731347    -0.10400
C807        C  0.84347854  0.20112863  0.80619148     0.06100
H808        H  0.76433960  0.25029148  0.80203507     0.08000
H809        H  0.74303545  0.31065548  0.74514611     0.11500
H810        H  0.88791314  0.31793995  0.69205851     0.11700
H811        H  0.90754685  0.25386561  0.74818213     0.08000
C812        C  0.81208237  0.16569047  0.79257834    -0.11100
C813        C  0.79855344  0.13140422  0.82690109    -0.10400
C814        C  0.81864700  0.12782733  0.87574001    -0.01300
C815        C  0.85707323  0.15896183  0.88531023    -0.11500
C816        C  0.86826555  0.19596561  0.85166905    -0.09900
H817        H  0.79249071  0.16854131  0.75769058     0.08000
H818        H  0.76798132  0.11199097  0.81569888     0.11700
H819        H  0.87327913  0.15981016  0.92206095     0.11500
H820        H  0.89261077  0.22296024  0.86358027     0.08000
C821        C  0.49488680  0.25841696  0.85514661    -0.11100
C822        C  0.52083379  0.21778509  0.84559982     0.06100
C823        C  0.56092110  0.20842728  0.87411046    -0.09900
C824        C  0.57862657  0.24283386  0.90512448    -0.11500
C825        C  0.55166952  0.28291775  0.91766023    -0.01300
C826        C  0.50846907  0.28963755  0.89280663    -0.10400
C827        C  0.52209483  0.19901184  0.79471387     0.06100
H828        H  0.58333611  0.17878047  0.86495663     0.08000
H829        H  0.61434232  0.23839004  0.91852137     0.11500
H830        H  0.48825212  0.32145534  0.89783669     0.11700
H831        H  0.46832265  0.26888712  0.82916294     0.08000
C832        C  0.49655957  0.15940793  0.77976039    -0.11100
C833        C  0.50796129  0.13715993  0.73408690    -0.10400
C834        C  0.54748569  0.15221415  0.70567625    -0.01300
C835        C  0.57401421  0.19015716  0.72440566    -0.11500
C836        C  0.55896842  0.21565581  0.76502512    -0.09900
H837        H  0.46893684  0.14535561  0.80364872     0.08000
H838        H  0.48838484  0.10626773  0.72326431     0.11700
H839        H  0.60796582  0.19957164  0.70868935     0.11500
H840        H  0.58029437  0.24503150  0.77734572     0.08000
C841        C  0.70917603  0.15521413  0.01987934    -0.11100
C842        C  0.70852160  0.20267091  0.00579514     0.06100
C843        C  0.73997166  0.21786873  0.96885171    -0.09900
C844        C  0.76764390  0.18613148  0.94276150    -0.11500
C845        C  0.76821988  0.13774495  0.95506657    -0.01300
C846        C  0.74085206  0.12384451  0.99714401    -0.10400
C847        C  0.67001713  0.23496313  0.02069260     0.06100
H848        H  0.73953473  0.25379216  0.95584003     0.08000
H849        H  0.78497174  0.20078651  0.91040475     0.11500
H850        H  0.73905981  0.08747112  0.00813298     0.11700
H851        H  0.68436275  0.14205471  0.04753522     0.08000
C852        C  0.62316736  0.21960017  0.01779690    -0.11100
C853        C  0.58705246  0.25217812  0.01085034    -0.10400
C854        C  0.59925793  0.29815302  0.99622278    -0.01300
C855        C  0.64237623  0.31542405  0.01457454    -0.11500
C856        C  0.67843819  0.28343977  0.02576707    -0.09900
H857        H  0.61473996  0.18267136  0.01642991     0.08000
H858        H  0.55167757  0.23902554  0.00476868     0.11700
H859        H  0.65136279  0.35201669  0.01006648     0.11500
H860        H  0.71397683  0.29638937  0.03123182     0.08000
C861        C  0.68625980  0.35186566  0.86900156    -0.11100
C862        C  0.66811692  0.38382489  0.83402942     0.06100
C863        C  0.62003101  0.39521922  0.83687272    -0.09900
C864        C  0.59103828  0.37521911  0.87379771    -0.11500
C865        C  0.60922203  0.34530812  0.91170460    -0.01300
C866        C  0.65715021  0.33193544  0.90593543    -0.10400
C867        C  0.69703115  0.39727538  0.78939810     0.06100
H868        H  0.60430002  0.41822853  0.80920619     0.08000
H869        H  0.55364071  0.38230105  0.87155444     0.11500
H870        H  0.67215873  0.30372101  0.92734413     0.11700
H871        H  0.72232456  0.33957110  0.86552134     0.08000
C872        C  0.74515331  0.40860036  0.79348517    -0.11100
C873        C  0.77440625  0.40832372  0.75057477    -0.10400
C874        C  0.75727642  0.39034595  0.70427018    -0.01300
C875        C  0.70743635  0.38969557  0.69914965    -0.11500
C876        C  0.67797657  0.39240396  0.74119806    -0.09900
H877        H  0.76065099  0.41472611  0.83011761     0.08000
H878        H  0.81202868  0.41275713  0.75600318     0.11700
H879        H  0.68930546  0.38320906  0.66476273     0.11500
H880        H  0.64061849  0.38597910  0.73614959     0.08000
C881        C  0.18474297  0.69101558  0.43070046    -0.11100
C882        C  0.17085789  0.71270055  0.47520715     0.06100
C883        C  0.13206655  0.69537500  0.50247680    -0.09900
C884        C  0.10844582  0.65500654  0.48544991    -0.11500
C885        C  0.12303371  0.63246785  0.44051751    -0.01300
C886        C  0.16110749  0.65240161  0.41343862    -0.10400
C887        C  0.19851356  0.75361148  0.48997422     0.06100
H888        H  0.12062551  0.71252777  0.53680242     0.08000
H889        H  0.07780065  0.64292011  0.50610225     0.11500
H890        H  0.17185856  0.63916579  0.37707457     0.11700
H891        H  0.21361194  0.70485519  0.40830370     0.08000
C892        C  0.24695658  0.74719171  0.49634794    -0.11100
C893        C  0.27829997  0.78411966  0.49072175    -0.10400
C894        C  0.26331931  0.82483137  0.46575237    -0.01300
C895        C  0.21370803  0.83308309  0.46451188    -0.11500
C896        C  0.18172894  0.79810532  0.47836101    -0.09900
H897        H  0.26100842  0.71214629  0.49973715     0.08000
H898        H  0.31558389  0.77624523  0.49352594     0.11700
H899        H  0.19778257  0.86314727  0.44758392     0.11500
H900        H  0.14440377  0.80349357  0.47162443     0.08000
C901        C  0.02988797  0.77121193  0.24286358    -0.11100
C902        C  0.05741503  0.76037103  0.28533872     0.06100
C903        C  0.09536755  0.78985753  0.29642441    -0.09900
C904        C  0.10625627  0.82825898  0.26569187    -0.11500
C905        C  0.07847229  0.84119778  0.22326699    -0.01300
C906        C  0.04029708  0.81058096  0.21225296    -0.10400
C907        C  0.05433697  0.71387810  0.31161684     0.06100
H908        H  0.11882437  0.78128533  0.32723762     0.08000
H909        H  0.13860267  0.84664077  0.27416616     0.11500
H910        H  0.02025639  0.81434925  0.17808211     0.11700
H911        H  0.00186086  0.74769118  0.23166980     0.08000
C912        C  0.03035669  0.70730216  0.35764785    -0.11100
C913        C  0.03704212  0.66604113  0.38660774    -0.10400
C914        C  0.06896511  0.63009523  0.37141375    -0.01300
C915        C  0.09097038  0.63762278  0.32362548    -0.11500
C916        C  0.08327542  0.67769756  0.29451077    -0.09900
H917        H  0.00864743  0.73523093  0.37273279     0.08000
H918        H  0.02096465  0.66472646  0.42358234     0.11700
H919        H  0.11943666  0.61632862  0.31017435     0.11500
H920        H  0.10366687  0.68232385  0.26022738     0.08000
C921        C  0.25695368  0.90429608  0.30256196    -0.11100
C922        C  0.22336989  0.93679257  0.31967619     0.06100
C923        C  0.22086246  0.94599789  0.37152147    -0.09900
C924        C  0.24744954  0.91936984  0.40551734    -0.11500
C925        C  0.27520212  0.88099684  0.38916554    -0.01300
C926        C  0.28296982  0.87756750  0.33651082    -0.10400
C927        C  0.18520626  0.95170748  0.28483611     0.06100
H928        H  0.19643704  0.97196905  0.38595238     0.08000
H929        H  0.24339928  0.92630446  0.44534726     0.11500
H930        H  0.30804083  0.85313435  0.32056493     0.11700
H931        H  0.26088379  0.89681927  0.26279067     0.08000
C932        C  0.19460233  0.95827826  0.23317417    -0.11100
C933        C  0.16091144  0.94455006  0.19751944    -0.10400
C934        C  0.12002056  0.92104234  0.21436605    -0.01300
C935        C  0.10474657  0.93118568  0.26379939    -0.11500
C936        C  0.13804647  0.94471039  0.29964224    -0.09900
H937        H  0.22988403  0.96700016  0.22045035     0.08000
H938        H  0.17136404  0.94284786  0.15828364     0.11700
H939        H  0.07038178  0.91976098  0.27686906     0.11500
H940        H  0.12847169  0.94235523  0.33906766     0.08000
C941        C  0.36633211  0.65134949  0.29921222    -0.11100
C942        C  0.36416851  0.70002083  0.29759980     0.06100
C943        C  0.36978955  0.72316989  0.25176603    -0.09900
C944        C  0.36858212  0.69798385  0.20710336    -0.11500
C945        C  0.35852577  0.64963645  0.20759927    -0.01300
C946        C  0.36779707  0.62635157  0.25399711    -0.10400
C947        C  0.34786637  0.72729093  0.34041707     0.06100
H948        H  0.37179927  0.76103447  0.25040684     0.08000
H949        H  0.37444523  0.71779983  0.17365424     0.11500
H950        H  0.36633214  0.58871719  0.25658816     0.11700
H951        H  0.36396371  0.63289649  0.33474908     0.08000
C952        C  0.30025207  0.73951628  0.34187580    -0.11100
C953        C  0.28560253  0.77679123  0.37132071    -0.10400
C954        C  0.31862444  0.80428350  0.39812131    -0.01300
C955        C  0.36623510  0.78961064  0.39854311    -0.11500
C956        C  0.38009634  0.75017030  0.37129622    -0.09900
H957        H  0.27490740  0.72193223  0.31792850     0.08000
H958        H  0.24849538  0.78603971  0.37113369     0.11700
H959        H  0.39326287  0.80820078  0.41877370     0.11500
H960        H  0.41632022  0.73866645  0.37234966     0.08000
C961        C  0.14698446  0.52948489  0.30502506    -0.11100
C962        C  0.19442137  0.53917181  0.31652125     0.06100
C963        C  0.20686066  0.54515115  0.36714500    -0.09900
C964        C  0.17157662  0.55163342  0.40350026    -0.11500
C965        C  0.12429186  0.55787782  0.38787655    -0.01300
C966        C  0.11171644  0.53681590  0.34174343    -0.10400
C967        C  0.22642139  0.55777102  0.27717332     0.06100
H968        H  0.24339347  0.55072511  0.37745734     0.08000
H969        H  0.18230912  0.56130903  0.44119613     0.11500
H970        H  0.07512685  0.53621916  0.33010554     0.11700
H971        H  0.13664233  0.52300641  0.26642532     0.08000
C972        C  0.22727633  0.60612718  0.26947170    -0.11100
C973        C  0.25855508  0.62596878  0.23507391    -0.10400
C974        C  0.28902390  0.59827040  0.20462044    -0.01300
C975        C  0.28943841  0.54963068  0.21510872    -0.11500
C976        C  0.25838942  0.52968497  0.25058757    -0.09900
H977        H  0.20436115  0.62892190  0.29112315     0.08000
H978        H  0.25917276  0.66378547  0.23210116     0.11700
H979        H  0.31582935  0.52705547  0.19969665     0.11500
H980        H  0.26072049  0.49275493  0.25872991     0.08000
C981        C  0.21286610  0.68748899  0.12677561    -0.11100
C982        C  0.23035593  0.73315136  0.12292444     0.06100
C983        C  0.27905878  0.73915638  0.11421393    -0.09900
C984        C  0.30961156  0.70059716  0.11565337    -0.11500
C985        C  0.29342121  0.65818959  0.13565959    -0.01300
C986        C  0.24422994  0.64995441  0.13038078    -0.10400
C987        C  0.19886600  0.77404599  0.13092450     0.06100
H988        H  0.29324526  0.77347292  0.10580815     0.08000
H989        H  0.34600312  0.70478830  0.10429773     0.11500
H990        H  0.22938919  0.61547198  0.13623318     0.11700
H991        H  0.17537506  0.68094134  0.13041153     0.08000
C992        C  0.15220050  0.77545094  0.11299559    -0.11100
C993        C  0.12264284  0.81359703  0.12401661    -0.10400
C994        C  0.13720379  0.84917623  0.15748210    -0.01300
C995        C  0.18359845  0.84538202  0.17706167    -0.11500
C996        C  0.21434045  0.81011677  0.16210951    -0.09900
H997        H  0.13840293  0.74696016  0.09062728     0.08000
H998        H  0.08674164  0.81298021  0.11018214     0.11700
H999        H  0.19577584  0.86651298  0.20785543     0.11500
H1000       H  0.24904393  0.80864508  0.17909434     0.08000
C1001       C  0.24485990  0.35795404  0.80977981    -0.11100
C1002       C  0.23984687  0.40665688  0.80754165     0.06100
C1003       C  0.26693049  0.43435940  0.83962532    -0.09900
C1004       C  0.29689629  0.41353912  0.87518363    -0.11500
C1005       C  0.29972487  0.36427782  0.88096613    -0.01300
C1006       C  0.27453973  0.33728082  0.84515797    -0.10400
C1007       C  0.20394483  0.42695267  0.77361461     0.06100
H1008       H  0.26464117  0.47211054  0.83748402     0.08000
H1009       H  0.31712826  0.43706028  0.89723782     0.11500
H1010       H  0.27623980  0.29942860  0.84634075     0.11700
H1011       H  0.22465919  0.33549245  0.78523906     0.08000
C1012       C  0.21258823  0.42959167  0.72160343    -0.11100
C1013       C  0.17456607  0.42708875  0.68790365    -0.10400
C1014       C  0.12942512  0.41483167  0.70679108    -0.01300
C1015       C  0.11966314  0.42857167  0.75686238    -0.11500
C1016       C  0.15732496  0.43254808  0.79095639    -0.09900
H1017       H  0.24834820  0.42777940  0.70714756     0.08000
H1018       H  0.18246278  0.42305826  0.64818997     0.11700
H1019       H  0.08424354  0.42528917  0.77192146     0.11500
H1020       H  0.14985996  0.43306438  0.83098994     0.08000
C1021       C  0.14919509  0.19410025  0.98251529    -0.11100
C1022       C  0.19745596  0.19344964  0.97020972     0.06100
C1023       C  0.21599370  0.15441051  0.94574169    -0.09900
C1024       C  0.18647738  0.11877132  0.92950278    -0.11500
C1025       C  0.13757328  0.11825923  0.94133546    -0.01300
C1026       C  0.12032418  0.15583375  0.97089229    -0.10400
C1027       C  0.22758205  0.23539093  0.97490648     0.06100
H1028       H  0.25262069  0.15398176  0.93374552     0.08000
H1029       H  0.20257468  0.09578848  0.90269025     0.11500
H1030       H  0.08302651  0.15828430  0.97965090     0.11700
H1031       H  0.13362250  0.22460065  0.00017262     0.08000
C1032       C  0.21128283  0.27835821  0.95689040    -0.11100
C1033       C  0.24308369  0.31455268  0.94826209    -0.10400
C1034       C  0.29245955  0.30689960  0.95280313    -0.01300
C1035       C  0.30614130  0.26924211  0.98351900    -0.11500
C1036       C  0.27468667  0.23202084  0.99138556    -0.09900
H1037       H  0.17470476  0.28303034  0.94624024     0.08000
H1038       H  0.22885574  0.34675481  0.93321762     0.11700
H1039       H  0.34252481  0.26546253  0.99522136     0.11500
H1040       H  0.28741678  0.20008296  0.00857330     0.08000
C1041       C  0.03464452  0.26596535  0.74112883    -0.11100
C1042       C  0.06350728  0.25577972  0.78292170     0.06100
C1043       C  0.09845211  0.28809824  0.79514422    -0.09900
C1044       C  0.10675932  0.32743648  0.76538049    -0.11500
C1045       C  0.07932547  0.33916232  0.72225545    -0.01300
C1046       C  0.04269832  0.30657040  0.71110818    -0.10400
C1047       C  0.06529744  0.20887120  0.80879062     0.06100
H1048       H  0.12242291  0.28083828  0.82592787     0.08000
H1049       H  0.13857596  0.34568637  0.77458840     0.11500
H1050       H  0.02251636  0.31000345  0.67689173     0.11700
H1051       H  0.00810914  0.24096907  0.72952535     0.08000
C1052       C  0.03166580  0.19408779  0.84468542    -0.11100
C1053       C  0.04031053  0.15477168  0.87621821    -0.10400
C1054       C  0.08294360  0.12847618  0.87252111    -0.01300
C1055       C  0.11570329  0.14435678  0.83556234    -0.11500
C1056       C  0.10683610  0.18262204  0.80426143    -0.09900
H1057       H  0.99992993  0.21458255  0.85048840     0.08000
H1058       H  0.01464804  0.14798316  0.90528910     0.11700
H1059       H  0.14989891  0.12777177  0.83183278     0.11500
H1060       H  0.13411431  0.19349848  0.77803159     0.08000
C1061       C  0.40133336  0.21058445  0.72789148    -0.11100
C1062       C  0.37000897  0.24024452  0.75318500     0.06100
C1063       C  0.32150668  0.23538106  0.74623653    -0.09900
C1064       C  0.30425911  0.19781004  0.71931847    -0.11500
C1065       C  0.33510862  0.16508163  0.69641103    -0.01300
C1066       C  0.38418068  0.17285201  0.69983899    -0.10400
C1067       C  0.38400258  0.26255086  0.79996068     0.06100
H1068       H  0.29681832  0.25767871  0.76630387     0.08000
H1069       H  0.26632315  0.19334360  0.71745817     0.11500
H1070       H  0.40947367  0.14923882  0.68296326     0.11700
H1071       H  0.43885354  0.21515106  0.73252665     0.08000
C1072       C  0.37651975  0.23660286  0.84378632    -0.11100
C1073       C  0.36634582  0.25939157  0.88854277    -0.10400
C1074       C  0.36508720  0.30874817  0.89024368    -0.01300
C1075       C  0.38743201  0.33286475  0.84989902    -0.11500
C1076       C  0.39239774  0.31062279  0.80323855    -0.09900
H1077       H  0.37172183  0.19898837  0.84178923     0.08000
H1078       H  0.35501570  0.23708464  0.91850881     0.11700
H1079       H  0.39072041  0.37058153  0.85094586     0.11500
H1080       H  0.39939717  0.33107345  0.76971333     0.08000
C1081       C  0.20489016  0.29305632  0.65616142    -0.11100
C1082       C  0.18897003  0.26519095  0.61710408     0.06100
C1083       C  0.14420878  0.27378617  0.59605923    -0.09900
C1084       C  0.11725326  0.31244002  0.61245040    -0.11500
C1085       C  0.13357473  0.34112974  0.65208636    -0.01300
C1086       C  0.17678887  0.32811174  0.67479793    -0.10400
C1087       C  0.21722952  0.22345865  0.60635020     0.06100
H1088       H  0.13047523  0.25095977  0.56704497     0.08000
H1089       H  0.08269869  0.31813821  0.59631223     0.11500
H1090       H  0.18862534  0.34319870  0.70940300     0.11700
H1091       H  0.23759685  0.28506695  0.67550274     0.08000
C1092       C  0.26604851  0.22761663  0.59795135    -0.11100
C1093       C  0.29562059  0.18904222  0.60406661    -0.10400
C1094       C  0.27836233  0.14887567  0.62907730    -0.01300
C1095       C  0.22841635  0.14334568  0.63064304    -0.11500
C1096       C  0.19838216  0.17993874  0.61801589    -0.09900
H1097       H  0.28141364  0.26130969  0.58895478     0.08000
H1098       H  0.33324430  0.19445824  0.59962693     0.11700
H1099       H  0.21054621  0.11411520  0.64696449     0.11500
H1100       H  0.16081586  0.17615221  0.62482396     0.08000
C1101       C  0.22630949  0.03084677  0.72170110    -0.11100
C1102       C  0.22822264  0.03851840  0.77378140     0.06100
C1103       C  0.26234474  0.06987061  0.79205856    -0.09900
C1104       C  0.29033835  0.09621354  0.75890277    -0.11500
C1105       C  0.28513150  0.09232931  0.70590669    -0.01300
C1106       C  0.25578450  0.05567724  0.68885807    -0.10400
C1107       C  0.18920555  0.02273423  0.80767082     0.06100
H1108       H  0.26516164  0.07671973  0.83205312     0.08000
H1109       H  0.31518653  0.12029078  0.77558652     0.11500
H1110       H  0.25239753  0.04941415  0.64891601     0.11700
H1111       H  0.20011482  0.00767408  0.70590468     0.08000
C1112       C  0.14231418  0.03038280  0.79268146    -0.11100
C1113       C  0.10814950  0.04137638  0.82890590    -0.10400
C1114       C  0.12206974  0.04808115  0.87943055    -0.01300
C1115       C  0.16230350  0.02297006  0.89493847    -0.11500
C1116       C  0.19738038  0.01272008  0.85887929    -0.09900
H1117       H  0.13351155  0.03531091  0.75340723     0.08000
H1118       H  0.07411255  0.05368229  0.81600626     0.11700
H1119       H  0.17149286  0.02133218  0.93445224     0.11500
H1120       H  0.23240270  0.00328262  0.87155961     0.08000
C1121       C  0.01717380  0.19461587  0.25648373    -0.11100
C1122       C  0.05301648  0.21950790  0.28153774     0.06100
C1123       C  0.09979988  0.21030281  0.26791788    -0.09900
C1124       C  0.11091174  0.17696203  0.23145526    -0.11500
C1125       C  0.07613224  0.14926342  0.20696022    -0.01300
C1126       C  0.02838091  0.15978027  0.22002721    -0.10400
C1127       C  0.04453986  0.25377815  0.32353136     0.06100
H1128       H  0.12834633  0.22931523  0.28570796     0.08000
H1129       H  0.14787987  0.17286309  0.22207367     0.11500
H1130       H  0.99892015  0.14257829  0.20276971     0.11700
H1131       H  0.98054110  0.20135277  0.26583881     0.08000
C1132       C  0.02262137  0.29755493  0.31636491    -0.11100
C1133       C  0.03070271  0.33469978  0.35080508    -0.10400
C1134       C  0.06515919  0.33020025  0.38912194    -0.01300
C1135       C  0.07520066  0.28309286  0.40293021    -0.11500
C1136       C  0.06697297  0.24605145  0.36967694    -0.09900
H1137       H  0.00219714  0.30405090  0.28270154     0.08000
H1138       H  0.01341574  0.36790972  0.34446333     0.11700
H1139       H  0.09419649  0.27486377  0.43707156     0.11500
H1140       H  0.08167035  0.21195865  0.37822902     0.08000
C1141       C  0.20678309  0.30040964  0.41891044    -0.11100
C1142       C  0.21698821  0.29799523  0.46999869     0.06100
C1143       C  0.19118773  0.32571569  0.50407307    -0.09900
C1144       C  0.15119096  0.35086820  0.48795413    -0.11500
C1145       C  0.13839646  0.35027444  0.43672286    -0.01300
C1146       C  0.16889132  0.32666153  0.40247167    -0.10400
C1147       C  0.24864832  0.26003886  0.48600157     0.06100
H1148       H  0.20133001  0.32685569  0.54313046     0.08000
H1149       H  0.13031982  0.36944814  0.51561037     0.11500
H1150       H  0.16115831  0.32601221  0.36254095     0.11700
H1151       H  0.22654147  0.27967632  0.39186137     0.08000
C1152       C  0.22905923  0.21574179  0.49517298    -0.11100
C1153       C  0.25736808  0.17553543  0.49314375    -0.10400
C1154       C  0.30263709  0.17869334  0.47169031    -0.01300
C1155       C  0.32476993  0.22318299  0.47321274    -0.11500
C1156       C  0.29748102  0.26378146  0.47875366    -0.09900
H1157       H  0.19139233  0.21200317  0.50115839     0.08000
H1158       H  0.24072574  0.14172628  0.49804855     0.11700
H1159       H  0.36131030  0.22706582  0.46181204     0.11500
H1160       H  0.31345713  0.29761129  0.47184316     0.08000
C1161       C  0.13957409  0.05686783  0.28759507    -0.11100
C1162       C  0.18803595  0.06695030  0.28605083     0.06100
C1163       C  0.20850495  0.07877400  0.23998333    -0.09900
C1164       C  0.18050933  0.08748936  0.19805898    -0.11500
C1165       C  0.13057361  0.08286066  0.20001262    -0.01300
C1166       C  0.11176064  0.06196123  0.24419107    -0.10400
C1167       C  0.21579521  0.07558182  0.33232345     0.06100
H1168       H  0.24580253  0.08708594  0.23788164     0.08000
H1169       H  0.19955491  0.10326507  0.16785442     0.11500
H1170       H  0.07400052  0.05688814  0.24776853     0.11700
H1171       H  0.12286028  0.04749401  0.32292310     0.08000
C1172       C  0.20236755  0.11273580  0.36333799    -0.11100
C1173       C  0.23437752  0.13262785  0.39698415    -0.10400
C1174       C  0.28032101  0.11374093  0.40488442    -0.01300
C1175       C  0.29273760  0.07585465  0.37282490    -0.11500
C1176       C  0.26122960  0.05694947  0.33770539    -0.09900
H1177       H  0.16884398  0.13015399  0.35726344     0.08000
H1178       H  0.22353169  0.16597775  0.41147115     0.11700
H1179       H  0.32860292  0.06340100  0.37169359     0.11500
H1180       H  0.27357927  0.03002541  0.31209948     0.08000
C1181       C  0.40996484  0.28558929  0.27875876    -0.11100
C1182       C  0.40815813  0.23734059  0.26844836     0.06100
C1183       C  0.40205601  0.22269698  0.21871807    -0.09900
C1184       C  0.38480618  0.25474536  0.18373510    -0.11500
C1185       C  0.37231863  0.30034924  0.19999772    -0.01300
C1186       C  0.39521475  0.31763545  0.24273402    -0.10400
C1187       C  0.38851119  0.20799192  0.30821844     0.06100
H1188       H  0.40210010  0.18579073  0.20936891     0.08000
H1189       H  0.37419487  0.24185113  0.14713933     0.11500
H1190       H  0.39222032  0.35418262  0.25313079     0.11700
H1191       H  0.41485256  0.29777164  0.31703589     0.08000
C1192       C  0.41245993  0.17073932  0.33103980    -0.11100
C1193       C  0.39238238  0.14870159  0.37334879    -0.10400
C1194       C  0.34773647  0.16326922  0.39161003    -0.01300
C1195       C  0.32314093  0.19793995  0.36465526    -0.11500
C1196       C  0.34306409  0.21961315  0.32389448    -0.09900
H1197       H  0.44694840  0.16010470  0.31749500     0.08000
H1198       H  0.41139753  0.12030965  0.39094585     0.11700
H1199       H  0.28809689  0.20902860  0.37575782     0.11500
H1200       H  0.32292028  0.24631869  0.30481246     0.08000
C1201       C  0.19485518  0.43274641  0.35367587    -0.11100
C1202       C  0.18872233  0.41699249  0.30404274     0.06100
C1203       C  0.14275311  0.40875540  0.28722107    -0.09900
C1204       C  0.10578889  0.40534529  0.32185557    -0.11500
C1205       C  0.11455754  0.40859529  0.37418394    -0.01300
C1206       C  0.15664007  0.43251902  0.38744763    -0.10400
C1207       C  0.22923086  0.40071751  0.27306193     0.06100
H1208       H  0.13606506  0.39955112  0.24832535     0.08000
H1209       H  0.07224633  0.39652777  0.30633494     0.11500
H1210       H  0.16381864  0.44052066  0.42655836     0.11700
H1211       H  0.22967021  0.44184207  0.36724691     0.08000
C1212       C  0.26268324  0.37052937  0.29432072    -0.11100
C1213       C  0.29590500  0.34746475  0.26409523    -0.10400
C1214       C  0.29869510  0.35553597  0.21157303    -0.01300
C1215       C  0.26423510  0.38587347  0.19093864    -0.11500
C1216       C  0.23033448  0.40808330  0.22095069    -0.09900
H1217       H  0.26110210  0.36214630  0.33409042     0.08000
H1218       H  0.31714202  0.32166779  0.28254008     0.11700
H1219       H  0.26264639  0.39149544  0.15075855     0.11500
H1220       H  0.20426066  0.43030675  0.20319861     0.08000
C1221       C  0.24781533  0.22611091  0.15521856    -0.11100
C1222       C  0.22517271  0.23752851  0.11036184     0.06100
C1223       C  0.23634251  0.27994431  0.08646588     0.02900
C1224       C  0.27464518  0.30700333  0.10304230    -0.11500
C1225       C  0.29833633  0.29503089  0.14778293    -0.01300
C1226       C  0.28161863  0.25577926  0.17503756    -0.10400
C1227       C  0.18555225  0.20752282  0.09490027     0.06100
H1228       H  0.21545657  0.29220541  0.05530298     0.08000
H1229       H  0.28346674  0.33876126  0.08291469     0.11500
H1230       H  0.29486280  0.24789785  0.21227186     0.11700
H1231       H  0.23718350  0.19554405  0.17661765     0.08000
C1232       C  0.19321465  0.15961693  0.08522712    -0.11100
C1233       C  0.15748572  0.12700333  0.09585871    -0.10400
C1234       C  0.11821253  0.14211875  0.12392645    -0.01300
C1235       C  0.10524908  0.18974562  0.11761908    -0.11500
C1236       C  0.13964588  0.22267545  0.10512989    -0.09900
H1237       H  0.22802378  0.14717394  0.07476033     0.08000
H1238       H  0.16534199  0.09003209  0.09243348     0.11700
H1239       H  0.07142993  0.20267908  0.13068625     0.11500
H1240       H  0.13208324  0.25954058  0.11027975     0.08000
loop_ 
_geom_bond_atom_site_label_1 
_geom_bond_atom_site_label_2 
_geom_bond_distance 
_geom_bond_site_symmetry_2 
_ccdc_geom_bond_type 
C1           C17   1.528       .  S
C1         C1185   1.540       .  S
C1         C1214   1.572       .  S
C1         C1225   1.539       .  S
C2           C77   1.548       .  S
C2         C1154   1.556       .  S
C2         C1174   1.592       .  S
C2         C1194   1.532       .  S
C3          C155   1.557       .  S
C3         C1125   1.602       .  S
C3         C1165   1.568       .  S
C3         C1234   1.560       .  S
C4          C221   1.557       .  S
C4         C1134   1.606       .  S
C4         C1145   1.558       .  S
C4         C1205   1.571       .  S
C5           C83   1.549       .  S
C5         C1065   1.540       .  S
C5         C1094   1.558       .  S
C5         C1105   1.585       .  S
C6          C184   1.558       .  S
C6         C1025   1.554       .  S
C6         C1054   1.597       .  S
C6         C1114   1.561       .  S
C7          C250   1.569       .  S
C7         C1014   1.567       .  S
C7         C1045   1.602       .  S
C7         C1085   1.547       .  S
C8           C34   1.531       .  S
C8         C1005   1.590       .  S
C8         C1034   1.560       .  S
C8         C1074   1.550       .  S
O9          Zr21   2.330       .  S
O9           C11   1.262       .  A
O10         Zr47   2.536       .  S
O10          C11   1.310       .  A
C11         C217   1.537       .  S
O12         Zr24   2.392       .  S
O12          C14   1.270       .  A
O13         Zr48   2.518       .  S
O13          C14   1.305       .  A
C14          C71   1.535       .  S
O15         Zr24   2.411       .  S
O15          C17   1.284       .  A
O16         Zr47   2.464       .  S
O16          C17   1.298       .  A
O18         Zr21   2.388       .  S
O18          C20   1.277       .  A
O19         Zr48   2.473       .  S
O19          C20   1.299       .  A
C20         C147   1.530       .  S
Zr21         O22   2.432       .  S
Zr21         O23   2.441       .  S
Zr21         O27   2.370       .  S
Zr21         O28   2.346       .  S
Zr21         O51   2.324       .  S
Zr21         O53   2.349       .  S
O22          H65   0.990       .  S
O23          H64   0.989       .  S
O23          H68   0.990       .  S
Zr24         O25   2.437       .  S
Zr24         O26   2.434       .  S
Zr24         O28   2.379       .  S
Zr24         O27   2.345       .  S
Zr24         O52   2.332       .  S
Zr24         O54   2.359       .  S
O25          H66   0.988       .  S
O25          H69   0.990       .  S
O26          H59   0.990       .  S
O27         Zr47   2.393       .  S
O28         Zr48   2.398       .  S
O28          H55   0.965       .  S
O29         Zr41   2.357       .  S
O29          C31   1.273       .  A
O30         Zr48   2.531   1_556  S
O30          C31   1.308       .  A
C31         C149   1.562       .  S
O32         Zr44   2.379       .  S
O32          C34   1.265       .  A
O33         Zr47   2.529   1_556  S
O33          C34   1.309       .  A
O35         Zr44   2.409       .  S
O35          C37   1.283       .  A
O36         Zr48   2.478   1_556  S
O36          C37   1.301       .  A
C37         C141   1.535       .  S
O38         Zr41   2.415       .  S
O38          C40   1.282       .  A
O39         Zr47   2.465       .  S
O39          C40   1.296   1_554  A
C40         C137   1.537       .  S
Zr41         O42   2.435       .  S
Zr41         O43   2.426       .  S
Zr41         O49   2.373       .  S
Zr41         O50   2.341       .  S
Zr41         O53   2.345   1_556  S
Zr41         O51   2.369   1_556  S
O42          H62   0.990       .  S
O42          H67   0.990       .  S
O43          H63   0.990       .  S
Zr44         O45   2.439       .  S
Zr44         O46   2.437       .  S
Zr44         O50   2.380       .  S
Zr44         O49   2.354       .  S
Zr44         O54   2.340   1_556  S
Zr44         O52   2.365   1_556  S
O45          H61   0.989       .  S
O46          H60   0.990   1_556  S
O46          H70   0.987       .  S
Zr47         O50   2.400   1_554  S
Zr47         O52   2.384       .  S
Zr47         O53   2.383       .  S
Zr48         O49   2.408   1_554  S
Zr48         O51   2.381       .  S
Zr48         O54   2.387       .  S
O49          H57   0.966       .  S
O52          H56   0.964       .  S
O53          H58   0.965       .  S
C71         C945   1.568       .  S
C71         C974   1.589       .  S
C71         C985   1.567       .  S
C72         C161   1.559       .  S
C72         C905   1.594       .  S
C72         C934   1.555       .  S
C72         C994   1.550       .  S
C73         C227   1.560       .  S
C73         C885   1.541       .  S
C73         C914   1.598       .  S
C73         C965   1.563       .  S
C74          C86   1.546       .  S
C74         C894   1.555       .  S
C74         C925   1.582       .  S
C74         C954   1.543       .  S
O75         Zr87   2.380   1_545  S
O75          C77   1.273       .  A
O76        Zr113   2.515       .  S
O76          C77   1.306       .  A
O78         Zr90   2.452       .  S
O78          C80   1.291       .  A
O79        Zr114   2.430       .  S
O79          C80   1.289       .  A
C80         C142   1.537       .  S
O81         Zr90   2.366   1_545  S
O81          C83   1.276       .  A
O82        Zr113   2.521       .  S
O82          C83   1.308       .  A
O84         Zr87   2.348       .  S
O84          C86   1.271       .  A
O85        Zr114   2.522       .  S
O85          C86   1.307       .  A
Zr87         O88   2.429       .  S
Zr87         O89   2.436       .  S
Zr87         O93   2.340   1_565  S
Zr87         O94   2.363       .  S
Zr87        O117   2.364       .  S
Zr87        O119   2.344   1_565  S
O88         H131   0.990       .  S
O89         H130   0.989   1_565  S
O89         H134   0.990       .  S
Zr90         O91   2.435       .  S
Zr90         O92   2.435       .  S
Zr90         O94   2.331       .  S
Zr90         O93   2.368   1_565  S
Zr90        O118   2.384   1_565  S
Zr90        O120   2.340       .  S
O91         H132   0.989       .  S
O91         H135   0.988       .  S
O92         H125   0.990       .  S
O93        Zr113   2.385       .  S
O94        Zr114   2.378       .  S
O94         H121   0.963       .  S
O95        Zr107   2.392       .  S
O95          C97   1.276       .  A
O96        Zr114   2.462       .  S
O96          C97   1.296       .  A
C97         C145   1.525       .  S
O98        Zr110   2.381   1_545  S
O98         C100   1.275       .  A
O99        Zr113   2.491       .  S
O99         C100   1.302       .  A
C100        C139   1.533       .  S
O101       Zr110   2.371       .  S
O101        C103   1.268       .  A
O102       Zr114   2.485       .  S
O102        C103   1.302       .  A
C103        C151   1.512       .  S
O104       Zr107   2.349   1_545  S
O104        C106   1.271       .  A
O105       Zr113   2.537       .  S
O105        C106   1.310       .  A
C106        C215   1.556       .  S
Zr107       O108   2.438       .  S
Zr107       O109   2.434       .  S
Zr107       O115   2.337       .  S
Zr107       O116   2.359   1_565  S
Zr107       O119   2.374   1_565  S
Zr107       O117   2.352       .  S
O108        H128   0.990       .  S
O108        H133   0.990       .  S
O109        H129   0.990       .  S
Zr110       O111   2.435       .  S
Zr110       O112   2.437       .  S
Zr110       O116   2.347   1_565  S
Zr110       O115   2.355       .  S
Zr110       O120   2.363       .  S
Zr110       O118   2.349   1_565  S
O111        H127   0.990       .  S
O112        H126   0.990       .  S
O112        H136   0.989       .  S
Zr113       O116   2.392       .  S
Zr113       O118   2.420       .  S
Zr113       O119   2.400       .  S
Zr114       O115   2.386       .  S
Zr114       O117   2.393       .  S
Zr114       O120   2.396       .  S
O115        H123   0.965       .  S
O118        H122   0.966       .  S
O119        H124   0.968       .  S
C137        C825   1.533       .  S
C137        C854   1.556       .  S
C137        C865   1.576       .  S
C138        C241   1.558       .  S
C138        C785   1.570       .  S
C138        C805   1.603       .  S
C138        C874   1.574       .  S
C139        C774   1.583       .  S
C139        C794   1.553       .  S
C139        C834   1.532       .  S
C140        C175   1.557       .  S
C140        C765   1.562       .  S
C140        C814   1.601       .  S
C140        C845   1.561       .  S
C141        C714   1.593       .  S
C141        C725   1.563       .  S
C141        C745   1.543       .  S
C142        C674   1.556       .  S
C142        C694   1.573       .  S
C142        C754   1.560       .  S
C143        C244   1.555       .  S
C143        C645   1.609       .  S
C143        C665   1.560       .  S
C143        C705   1.575       .  S
C144        C178   1.554       .  S
C144        C654   1.610       .  S
C144        C685   1.567       .  S
C144        C734   1.558       .  S
C145        C585   1.527       .  S
C145        C605   1.572       .  S
C145        C634   1.550       .  S
C146        C224   1.558       .  S
C146        C554   1.569       .  S
C146        C574   1.595       .  S
C146        C625   1.562       .  S
C147        C525   1.546       .  S
C147        C545   1.577       .  S
C147        C594   1.530       .  S
C148        C158   1.545       .  S
C148        C534   1.553       .  S
C148        C565   1.593       .  S
C148        C614   1.569       .  S
C149        C465   1.538       .  S
C149        C494   1.588       .  S
C149        C505   1.555       .  S
C150        C247   1.566       .  S
C150        C425   1.549       .  S
C150        C445   1.593       .  S
C150        C485   1.563       .  S
C151        C405   1.584       .  S
C151        C434   1.567       .  S
C151        C474   1.554       .  S
C152        C181   1.557       .  S
C152        C414   1.555       .  S
C152        C454   1.620       .  S
C152        C514   1.566       .  S
O153       Zr165   2.410   1_455  S
O153        C155   1.276       .  A
O154       Zr191   2.542   1_545  S
O154        C155   1.314       .  A
O156       Zr168   2.435       .  S
O156        C158   1.283       .  A
O157       Zr192   2.515       .  S
O157        C158   1.311       .  A
O159       Zr168   2.416   1_455  S
O159        C161   1.280       .  A
O160       Zr191   2.536       .  S
O160        C161   1.313       .  A
O162       Zr165   2.435       .  S
O162        C164   1.283       .  A
O163       Zr192   2.566   1_545  S
O163        C164   1.319       .  A
C164        C216   1.577       .  S
Zr165       O166   2.435       .  S
Zr165       O167   2.438       .  S
Zr165       O171   2.377   1_545  S
Zr165       O172   2.367   1_545  S
Zr165       O195   2.371       .  S
Zr165       O197   2.380       .  S
O166        H209   0.990       .  S
O167        H208   0.990       .  S
O167        H212   0.989       .  S
Zr168       O169   2.439       .  S
Zr168       O170   2.436       .  S
Zr168       O172   2.365       .  S
Zr168       O171   2.374       .  S
Zr168       O196   2.379       .  S
Zr168       O198   2.377       .  S
O169        H210   0.990       .  S
O169        H213   0.990       .  S
O170        H203   0.990       .  S
O171       Zr191   2.407   1_655  S
O172       Zr192   2.400       .  S
O172        H199   0.965       .  S
O173       Zr185   2.405       .  S
O173        C175   1.279       .  A
O174       Zr192   2.530   1_546  S
O174        C175   1.312       .  A
O176       Zr188   2.394   1_455  S
O176        C178   1.273       .  A
O177       Zr191   2.552   1_556  S
O177        C178   1.316       .  A
O179       Zr188   2.381       .  S
O179        C181   1.274       .  A
O180       Zr192   2.571   1_556  S
O180        C181   1.321       .  A
O182       Zr185   2.417   1_455  S
O182        C184   1.279       .  A
O183       Zr191   2.532   1_546  S
O183        C184   1.312       .  A
Zr185       O186   2.440       .  S
Zr185       O187   2.434       .  S
Zr185       O193   2.363   1_545  S
Zr185       O194   2.363   1_545  S
Zr185       O197   2.364   1_556  S
Zr185       O195   2.383   1_556  S
O186        H206   0.990       .  S
O186        H211   0.990       .  S
O187        H207   0.990   1_556  S
Zr188       O189   2.433       .  S
Zr188       O190   2.437       .  S
Zr188       O194   2.355       .  S
Zr188       O193   2.362       .  S
Zr188       O198   2.374   1_556  S
Zr188       O196   2.371   1_556  S
O189        H205   0.990       .  S
O190        H204   0.990       .  S
O190        H214   0.990       .  S
Zr191       O194   2.390   1_454  S
Zr191       O196   2.401   1_455  S
Zr191       O197   2.407   1_465  S
Zr192       O193   2.403   1_554  S
Zr192       O195   2.407   1_565  S
Zr192       O198   2.400       .  S
O193        H201   0.966       .  S
O196        H200   0.966   1_655  S
O197        H202   0.966   1_655  S
C215        C354   1.542       .  S
C215        C374   1.553       .  S
C215        C394   1.594       .  S
C216        C314   1.551       .  S
C216        C334   1.602       .  S
C216        C385   1.570       .  S
C217        C294   1.596       .  S
C217        C305   1.559       .  S
C217        C345   1.560       .  S
C218        C230   1.552       .  S
C218        C285   1.560       .  S
C218        C325   1.597       .  S
C218        C365   1.546       .  S
O219       Zr231   2.409   1_455  S
O219        C221   1.282       .  A
O220       Zr257   2.533       .  S
O220        C221   1.310       .  A
O222       Zr234   2.440       .  S
O222        C224   1.284       .  A
O223       Zr258   2.526       .  S
O223        C224   1.311       .  A
O225       Zr234   2.421   1_455  S
O225        C227   1.283       .  A
O226       Zr257   2.547       .  S
O226        C227   1.316       .  A
O228       Zr231   2.413       .  S
O228        C230   1.279       .  A
O229       Zr258   2.531       .  S
O229        C230   1.313       .  A
Zr231       O232   2.434       .  S
Zr231       O233   2.436       .  S
Zr231       O237   2.364       .  S
Zr231       O238   2.372       .  S
Zr231       O261   2.369       .  S
Zr231       O263   2.375       .  S
O232        H275   0.990       .  S
O233        H274   0.990       .  S
O233        H278   0.990       .  S
Zr234       O235   2.438       .  S
Zr234       O236   2.436       .  S
Zr234       O238   2.367       .  S
Zr234       O237   2.377       .  S
Zr234       O262   2.382       .  S
Zr234       O264   2.375       .  S
O235        H276   0.990       .  S
O235        H279   0.990       .  S
O236        H269   0.990       .  S
O237       Zr257   2.401   1_655  S
O238       Zr258   2.400       .  S
O238        H265   0.966       .  S
O239       Zr251   2.417       .  S
O239        C241   1.278       .  A
O240       Zr258   2.536       .  S
O240        C241   1.312       .  A
O242       Zr254   2.417   1_455  S
O242        C244   1.283       .  A
O243       Zr257   2.528       .  S
O243        C244   1.311       .  A
O245       Zr254   2.424       .  S
O245        C247   1.282       .  A
O246       Zr258   2.542       .  S
O246        C247   1.313       .  A
O248       Zr251   2.416   1_455  S
O248        C250   1.281       .  A
O249       Zr257   2.565       .  S
O249        C250   1.319       .  A
Zr251       O252   2.438       .  S
Zr251       O253   2.435       .  S
Zr251       O259   2.367       .  S
Zr251       O260   2.369       .  S
Zr251       O263   2.370       .  S
Zr251       O261   2.372       .  S
O252        H272   0.990       .  S
O252        H277   0.990       .  S
O253        H273   0.990       .  S
Zr254       O255   2.434       .  S
Zr254       O256   2.436       .  S
Zr254       O260   2.369       .  S
Zr254       O259   2.371       .  S
Zr254       O264   2.367       .  S
Zr254       O262   2.373       .  S
O255        H271   0.990       .  S
O256        H270   0.990       .  S
O256        H280   0.990       .  S
Zr257       O260   2.395   1_455  S
Zr257       O262   2.412   1_455  S
Zr257       O263   2.402   1_455  S
Zr258       O259   2.400       .  S
Zr258       O261   2.401       .  S
Zr258       O264   2.403       .  S
O259        H267   0.966       .  S
O262        H266   0.966   1_655  S
O263        H268   0.966   1_655  S
C281        C282   1.401       .  A
C281        C286   1.399       .  A
C281        H291   1.083       .  S
C282        C283   1.407       .  A
C282        C287   1.481       .  S
C283        C284   1.405       .  A
C283        H288   1.083       .  S
C284        C285   1.409       .  A
C284        H289   1.083       .  S
C285        C286   1.414       .  A
C286        H290   1.083       .  S
C287        C292   1.400       .  A
C287        C296   1.399       .  A
C292        C293   1.407       .  A
C292        H297   1.083       .  S
C293        C294   1.425       .  A
C293        H298   1.072       .  S
C294        C295   1.417       .  A
C295        C296   1.390       .  A
C295        H299   1.081       .  S
C296        H300   1.081       .  S
C301        C302   1.392       .  A
C301        C306   1.389       .  A
C301        H311   1.083       .  S
C302        C303   1.405       .  A
C302        C307   1.473       .  S
C303        C304   1.398       .  A
C303        H308   1.083       .  S
C304        C305   1.400       .  A
C304        H309   1.082       .  S
C305        C306   1.426       .  A
C306        H310   1.077       .  S
C307        C312   1.406       .  A
C307        C316   1.388       .  A
C312        C313   1.402       .  A
C312        H317   1.083       .  S
C313        C314   1.414       .  A
C313        H318   1.083       .  S
C314        C315   1.420       .  A
C315        C316   1.381       .  A
C315        H319   1.067       .  S
C316        H320   1.084       .  S
C321        C322   1.400       .  A
C321        C326   1.397       .  A
C321        H331   1.084       .  S
C322        C323   1.411       .  A
C322        C327   1.511       .  S
C323        C324   1.425       .  A
C323        H328   1.083       .  S
C324        C325   1.424       .  A
C324        H329   1.075       .  S
C325        C326   1.422       .  A
C326        H330   1.081       .  S
C327        C332   1.397       .  A
C327        C336   1.412       .  A
C332        C333   1.396       .  A
C332        H337   1.084       .  S
C333        C334   1.426       .  A
C333        H338   1.079       .  S
C334        C335   1.424       .  A
C335        C336   1.426       .  A
C335        H339   1.075       .  S
C336        H340   1.083       .  S
C341        C342   1.394       .  A
C341        C346   1.379       .  A
C341        H351   1.085       .  S
C342        C343   1.398       .  A
C342        C347   1.453       .  S
C343        C344   1.403       .  A
C343        H348   1.083       .  S
C344        C345   1.423       .  A
C344        H349   1.083       .  S
C345        C346   1.410       .  A
C346        H350   1.066       .  S
C347        C352   1.399       .  A
C347        C356   1.392       .  A
C352        C353   1.402       .  A
C352        H357   1.082       .  S
C353        C354   1.411       .  A
C353        H358   1.078       .  S
C354        C355   1.416       .  A
C355        C356   1.375       .  A
C355        H359   1.083       .  S
C356        H360   1.084       .  S
C361        C362   1.393       .  A
C361        C366   1.387       .  A
C361        H371   1.084       .  S
C362        C363   1.403       .  A
C362        C367   1.473       .  S
C363        C364   1.396       .  A
C363        H368   1.082       .  S
C364        C365   1.414       .  A
C364        H369   1.083       .  S
C365        C366   1.417       .  A
C366        H370   1.068       .  S
C367        C372   1.402       .  A
C367        C376   1.396       .  A
C372        C373   1.396       .  A
C372        H377   1.083       .  S
C373        C374   1.414       .  A
C373        H378   1.082       .  S
C374        C375   1.420       .  A
C375        C376   1.391       .  A
C375        H379   1.071       .  S
C376        H380   1.083       .  S
C381        C382   1.411       .  A
C381        C386   1.410       .  A
C381        H391   1.083       .  S
C382        C383   1.408       .  A
C382        C387   1.501       .  S
C383        C384   1.404       .  A
C383        H388   1.082       .  S
C384        C385   1.414       .  A
C384        H389   1.083       .  S
C385        C386   1.410       .  A
C386        H390   1.083       .  S
C387        C392   1.406       .  A
C387        C396   1.405       .  A
C392        C393   1.402       .  A
C392        H397   1.083       .  S
C393        C394   1.419       .  A
C393        H398   1.081       .  S
C394        C395   1.417       .  A
C395        C396   1.407       .  A
C395        H399   1.082       .  S
C396        H400   1.083       .  S
C401        C402   1.406       .  A
C401        C406   1.409       .  A
C401        H411   1.082       .  S
C402        C403   1.405       .  A
C402        C407   1.497       .  S
C403        C404   1.374       .  A
C403        H408   1.080       .  S
C404        C405   1.408       .  A
C404        H409   1.083       .  S
C405        C406   1.422       .  A
C406        H410   1.070       .  S
C407        C412   1.419       .  A
C407        C416   1.396       .  A
C412        C413   1.422       .  A
C412        H417   1.078       .  S
C413        C414   1.407       .  A
C413        H418   1.081       .  S
C414        C415   1.413       .  A
C415        C416   1.361       .  A
C415        H419   1.083       .  S
C416        H420   1.080       .  S
C421        C422   1.407       .  A
C421        C426   1.404       .  A
C421        H431   1.079       .  S
C422        C423   1.394       .  A
C422        C427   1.488       .  S
C423        C424   1.386       .  A
C423        H428   1.084       .  S
C424        C425   1.419       .  A
C424        H429   1.074       .  S
C425        C426   1.412       .  A
C426        H430   1.083       .  S
C427        C432   1.403       .  A
C427        C436   1.409       .  A
C432        C433   1.403       .  A
C432        H437   1.082       .  S
C433        C434   1.421       .  A
C433        H438   1.084       .  S
C434        C435   1.399       .  A
C435        C436   1.399       .  A
C435        H439   1.076       .  S
C436        H440   1.083       .  S
C441        C442   1.401       .  A
C441        C446   1.398       .  A
C441        H451   1.084       .  S
C442        C443   1.407       .  A
C442        C447   1.505       .  S
C443        C444   1.418       .  A
C443        H448   1.083       .  S
C444        C445   1.424       .  A
C444        H449   1.074       .  S
C445        C446   1.423       .  A
C446        H450   1.080       .  S
C447        C452   1.406       .  A
C447        C456   1.400       .  A
C452        C453   1.417       .  A
C452        H457   1.083       .  S
C453        C454   1.431       .  A
C453        H458   1.083       .  S
C454        C455   1.420       .  A
C455        C456   1.402       .  A
C455        H459   1.066       .  S
C456        H460   1.083       .  S
C461        C462   1.392       .  A
C461        C466   1.396       .  A
C461        H471   1.079       .  S
C462        C463   1.391       .  A
C462        C467   1.451       .  S
C463        C464   1.377       .  A
C463        H468   1.081       .  S
C464        C465   1.416       .  A
C464        H469   1.083       .  S
C465        C466   1.413       .  A
C466        H470   1.076       .  S
C467        C472   1.399       .  A
C467        C476   1.394       .  A
C472        C473   1.386       .  A
C472        H477   1.084       .  S
C473        C474   1.404       .  A
C473        H478   1.066       .  S
C474        C475   1.423       .  A
C475        C476   1.397       .  A
C475        H479   1.083       .  S
C476        H480   1.083       .  S
C481        C482   1.411       .  A
C481        C486   1.406       .  A
C481        H491   1.083       .  S
C482        C483   1.409       .  A
C482        C487   1.498       .  S
C483        C484   1.399       .  A
C483        H488   1.082       .  S
C484        C485   1.410       .  A
C484        H489   1.082       .  S
C485        C486   1.413       .  A
C486        H490   1.083       .  S
C487        C492   1.407       .  A
C487        C496   1.405       .  A
C492        C493   1.400       .  A
C492        H497   1.082       .  S
C493        C494   1.417       .  A
C493        H498   1.081       .  S
C494        C495   1.415       .  A
C495        C496   1.403       .  A
C495        H499   1.083       .  S
C496        H500   1.083       .  S
C501        C502   1.396       .  A
C501        C506   1.388       .  A
C501        H511   1.083       .  S
C502        C503   1.403       .  A
C502        C507   1.483       .  S
C503        C504   1.397       .  A
C503        H508   1.081       .  S
C504        C505   1.413       .  A
C504        H509   1.082       .  S
C505        C506   1.421       .  A
C506        H510   1.070       .  S
C507        C512   1.410       .  A
C507        C516   1.407       .  A
C512        C513   1.396       .  A
C512        H517   1.082   1_556  S
C513        C514   1.389       .  A
C513        H518   1.079   1_556  S
C514        C515   1.421       .  A
C515        C516   1.401       .  A
C515        H519   1.083       .  S
C516        H520   1.081       .  S
C521        C522   1.416       .  A
C521        C526   1.399       .  A
C521        H531   1.080       .  S
C522        C523   1.408       .  A
C522        C527   1.492       .  S
C523        C524   1.391       .  A
C523        H528   1.079       .  S
C524        C525   1.406       .  A
C524        H529   1.083       .  S
C525        C526   1.404       .  A
C526        H530   1.083       .  S
C527        C532   1.407       .  A
C527        C536   1.414       .  A
C532        C533   1.389       .  A
C532        H537   1.079       .  S
C533        C534   1.414       .  A
C533        H538   1.083       .  S
C534        C535   1.392       .  A
C535        C536   1.396       .  A
C535        H539   1.082       .  S
C536        H540   1.080       .  S
C541        C542   1.403       .  A
C541        C546   1.403       .  A
C541        H551   1.083       .  S
C542        C543   1.400       .  A
C542        C547   1.489       .  S
C543        C544   1.401       .  A
C543        H548   1.084       .  S
C544        C545   1.420       .  A
C544        H549   1.077       .  S
C545        C546   1.417       .  A
C546        H550   1.080       .  S
C547        C552   1.394       .  A
C547        C556   1.405       .  A
C552        C553   1.394       .  A
C552        H557   1.084       .  S
C553        C554   1.422       .  A
C553        H558   1.065       .  S
C554        C555   1.420       .  A
C555        C556   1.408       .  A
C555        H559   1.083       .  S
C556        H560   1.083       .  S
C561        C562   1.401       .  A
C561        C566   1.382       .  A
C561        H571   1.082       .  S
C562        C563   1.419       .  A
C562        C567   1.517       .  S
C563        C564   1.429       .  A
C563        H568   1.082       .  S
C564        C565   1.418       .  A
C564        H569   1.077       .  S
C565        C566   1.419       .  A
C566        H570   1.083       .  S
C567        C572   1.402       .  A
C567        C576   1.416       .  A
C572        C573   1.385       .  A
C572        H577   1.082       .  S
C573        C574   1.419       .  A
C573        H578   1.082       .  S
C574        C575   1.421       .  A
C575        C576   1.427       .  A
C575        H579   1.076       .  S
C576        H580   1.082       .  S
C581        C582   1.397       .  A
C581        C586   1.395       .  A
C581        H591   1.083       .  S
C582        C583   1.394       .  A
C582        C587   1.445       .  S
C583        C584   1.374       .  A
C583        H588   1.085       .  S
C584        C585   1.409       .  A
C584        H589   1.080       .  S
C585        C586   1.416       .  A
C586        H590   1.082       .  S
C587        C592   1.397       .  A
C587        C596   1.391       .  A
C592        C593   1.390       .  A
C592        H597   1.073       .  S
C593        C594   1.408       .  A
C593        H598   1.082       .  S
C594        C595   1.413       .  A
C595        C596   1.376       .  A
C595        H599   1.080       .  S
C596        H600   1.085       .  S
C601        C602   1.399       .  A
C601        C606   1.396       .  A
C601        H611   1.084       .  S
C602        C603   1.400       .  A
C602        C607   1.477       .  S
C603        C604   1.398       .  A
C603        H608   1.083       .  S
C604        C605   1.417       .  A
C604        H609   1.079       .  S
C605        C606   1.418       .  A
C606        H610   1.080       .  S
C607        C612   1.403       .  A
C607        C616   1.394       .  A
C612        C613   1.404       .  A
C612        H617   1.083       .  S
C613        C614   1.419       .  A
C613        H618   1.083       .  S
C614        C615   1.419       .  A
C615        C616   1.391       .  A
C615        H619   1.065       .  S
C616        H620   1.084       .  S
C621        C622   1.411       .  A
C621        C626   1.393       .  A
C621        H631   1.078       .  S
C622        C623   1.418       .  A
C622        C627   1.505       .  S
C623        C624   1.406       .  A
C623        H628   1.080       .  S
C624        C625   1.401       .  A
C624        H629   1.083       .  S
C625        C626   1.411       .  A
C626        H630   1.083       .  S
C627        C632   1.414       .  A
C627        C636   1.411       .  A
C632        C633   1.397       .  A
C632        H637   1.079       .  S
C633        C634   1.405       .  A
C633        H638   1.083       .  S
C634        C635   1.407       .  A
C635        C636   1.397       .  A
C635        H639   1.083       .  S
C636        H640   1.079       .  S
C641        C642   1.402       .  A
C641        C646   1.400       .  A
C641        H651   1.084       .  S
C642        C643   1.409       .  A
C642        C647   1.511       .  S
C643        C644   1.421       .  A
C643        H648   1.083       .  S
C644        C645   1.422       .  A
C644        H649   1.080       .  S
C645        C646   1.425       .  A
C646        H650   1.080       .  S
C647        C652   1.398       .  A
C647        C656   1.413       .  A
C652        C653   1.393       .  A
C652        H657   1.084       .  S
C653        C654   1.424       .  A
C653        H658   1.082       .  S
C654        C655   1.426       .  A
C655        C656   1.427       .  A
C655        H659   1.074       .  S
C656        H660   1.083   1_455  S
C661        C662   1.392       .  A
C661        C666   1.381       .  A
C661        H671   1.085       .  S
C662        C663   1.403       .  A
C662        C667   1.465       .  S
C663        C664   1.407       .  A
C663        H668   1.080       .  S
C664        C665   1.411       .  A
C664        H669   1.079       .  S
C665        C666   1.420       .  A
C666        H670   1.083       .  S
C667        C672   1.398       .  A
C667        C676   1.403       .  A
C672        C673   1.385       .  A
C672        H677   1.084       .  S
C673        C674   1.414       .  A
C673        H678   1.078       .  S
C674        C675   1.412       .  A
C675        C676   1.410       .  A
C675        H679   1.083       .  S
C676        H680   1.083       .  S
C681        C682   1.403       .  A
C681        C686   1.409       .  A
C681        H691   1.083       .  S
C682        C683   1.396       .  A
C682        C687   1.483       .  S
C683        C684   1.390       .  A
C683        H688   1.084       .  S
C684        C685   1.416       .  A
C684        H689   1.066       .  S
C685        C686   1.422       .  A
C686        H690   1.083       .  S
C687        C692   1.402       .  A
C687        C696   1.399       .  A
C692        C693   1.390       .  A
C692        H697   1.084       .  S
C693        C694   1.415       .  A
C693        H698   1.081       .  S
C694        C695   1.415       .  A
C695        C696   1.404       .  A
C695        H699   1.075       .  S
C696        H700   1.077       .  S
C701        C702   1.396       .  A
C701        C706   1.398       .  A
C701        H711   1.083       .  S
C702        C703   1.400       .  A
C702        C707   1.476       .  S
C703        C704   1.400       .  A
C703        H708   1.083       .  S
C704        C705   1.416       .  A
C704        H709   1.083       .  S
C705        C706   1.418       .  A
C706        H710   1.069       .  S
C707        C712   1.391       .  A
C707        C716   1.399       .  A
C712        C713   1.387       .  A
C712        H717   1.084       .  S
C713        C714   1.428       .  A
C713        H718   1.075       .  S
C714        C715   1.419       .  A
C715        C716   1.406       .  A
C715        H719   1.073       .  S
C716        H720   1.083       .  S
C721        C722   1.406       .  A
C721        C726   1.402   1_554  A
C721        H731   1.081       .  S
C722        C723   1.405       .  A
C722        C727   1.492       .  S
C723        C724   1.389   1_554  A
C723        H728   1.081       .  S
C724        C725   1.406       .  A
C724        H729   1.069       .  S
C725        C726   1.416       .  A
C726        H730   1.083       .  S
C727        C732   1.413       .  A
C727        C736   1.405   1_554  A
C732        C733   1.406   1_554  A
C732        H737   1.081       .  S
C733        C734   1.405       .  A
C733        H738   1.082   1_556  S
C734        C735   1.412       .  A
C735        C736   1.383       .  A
C735        H739   1.083       .  S
C736        H740   1.080       .  S
C741        C742   1.390       .  A
C741        C746   1.374       .  A
C741        H751   1.084       .  S
C742        C743   1.405       .  A
C742        C747   1.459       .  S
C743        C744   1.397       .  A
C743        H748   1.083       .  S
C744        C745   1.413       .  A
C744        H749   1.082       .  S
C745        C746   1.419       .  A
C746        H750   1.080       .  S
C747        C752   1.386       .  A
C747        C756   1.401       .  A
C752        C753   1.381       .  A
C752        H757   1.085       .  S
C753        C754   1.423       .  A
C753        H758   1.061       .  S
C754        C755   1.413       .  A
C755        C756   1.394       .  A
C755        H759   1.083       .  S
C756        H760   1.083       .  S
C761        C762   1.407       .  A
C761        C766   1.410       .  A
C761        H771   1.083       .  S
C762        C763   1.396       .  A
C762        C767   1.485       .  S
C763        C764   1.392       .  A
C763        H768   1.084       .  S
C764        C765   1.419       .  A
C764        H769   1.075       .  S
C765        C766   1.417       .  A
C766        H770   1.083       .  S
C767        C772   1.399       .  A
C767        C776   1.401       .  A
C772        C773   1.398       .  A
C772        H777   1.083       .  S
C773        C774   1.419       .  A
C773        H778   1.076       .  S
C774        C775   1.422       .  A
C775        C776   1.404       .  A
C775        H779   1.080       .  S
C776        H780   1.083       .  S
C781        C782   1.399       .  A
C781        C786   1.388       .  A
C781        H791   1.082       .  S
C782        C783   1.413       .  A
C782        C787   1.492       .  S
C783        C784   1.409       .  A
C783        H788   1.082       .  S
C784        C785   1.405       .  A
C784        H789   1.082       .  S
C785        C786   1.420       .  A
C786        H790   1.079       .  S
C787        C792   1.413       .  A
C787        C796   1.406       .  A
C792        C793   1.400       .  A
C792        H797   1.082       .  S
C793        C794   1.403       .  A
C793        H798   1.083       .  S
C794        C795   1.414       .  A
C795        C796   1.398       .  A
C795        H799   1.083       .  S
C796        H800   1.082       .  S
C801        C802   1.408       .  A
C801        C806   1.423       .  A
C801        H811   1.083       .  S
C802        C803   1.396       .  A
C802        C807   1.499       .  S
C803        C804   1.387       .  A
C803        H808   1.084       .  S
C804        C805   1.423       .  A
C804        H809   1.081       .  S
C805        C806   1.429       .  A
C806        H810   1.075       .  S
C807        C812   1.396       .  A
C807        C816   1.407       .  A
C812        C813   1.391       .  A
C812        H817   1.085       .  S
C813        C814   1.422       .  A
C813        H818   1.072       .  S
C814        C815   1.430       .  A
C815        C816   1.420       .  A
C815        H819   1.080       .  S
C816        H820   1.083       .  S
C821        C822   1.396       .  A
C821        C826   1.395       .  A
C821        H831   1.066       .  S
C822        C823   1.393       .  A
C822        C827   1.454       .  S
C823        C824   1.378       .  A
C823        H828   1.085       .  S
C824        C825   1.415       .  A
C824        H829   1.081       .  S
C825        C826   1.406       .  A
C826        H830   1.082       .  S
C827        C832   1.401       .  A
C827        C836   1.390       .  A
C832        C833   1.405       .  A
C832        H837   1.083       .  S
C833        C834   1.415       .  A
C833        H838   1.082       .  S
C834        C835   1.411       .  A
C835        C836   1.368       .  A
C835        H839   1.081       .  S
C836        H840   1.085       .  S
C841        C842   1.407       .  A
C841        C846   1.402   1_554  A
C841        H851   1.082       .  S
C842        C843   1.392   1_554  A
C842        C847   1.480       .  S
C843        C844   1.382       .  A
C843        H848   1.083       .  S
C844        C845   1.421       .  A
C844        H849   1.073       .  S
C845        C846   1.415       .  A
C846        H850   1.081   1_556  S
C847        C852   1.400       .  A
C847        C856   1.412       .  A
C852        C853   1.395       .  A
C852        H857   1.083       .  S
C853        C854   1.413   1_554  A
C853        H858   1.083       .  S
C854        C855   1.406   1_556  A
C855        C856   1.403       .  A
C855        H859   1.083       .  S
C856        H860   1.083       .  S
C861        C862   1.401       .  A
C861        C866   1.400       .  A
C861        H871   1.084       .  S
C862        C863   1.402       .  A
C862        C867   1.489       .  S
C863        C864   1.399       .  A
C863        H868   1.083       .  S
C864        C865   1.419       .  A
C864        H869   1.080       .  S
C865        C866   1.418       .  A
C866        H870   1.075       .  S
C867        C872   1.406       .  A
C867        C876   1.398       .  A
C872        C873   1.406       .  A
C872        H877   1.083       .  S
C873        C874   1.419       .  A
C873        H878   1.083       .  S
C874        C875   1.419       .  A
C875        C876   1.393       .  A
C875        H879   1.065       .  S
C876        H880   1.083       .  S
C881        C882   1.389       .  A
C881        C886   1.370       .  A
C881        H891   1.084       .  S
C882        C883   1.404       .  A
C882        C887   1.462       .  S
C883        C884   1.409       .  A
C883        H888   1.083       .  S
C884        C885   1.415       .  A
C884        H889   1.082       .  S
C885        C886   1.414       .  A
C886        H890   1.079       .  S
C887        C892   1.395       .  A
C887        C896   1.392       .  A
C892        C893   1.387       .  A
C892        H897   1.081       .  S
C893        C894   1.405       .  A
C893        H898   1.082       .  S
C894        C895   1.425       .  A
C895        C896   1.398       .  A
C895        H899   1.070       .  S
C896        H900   1.084       .  S
C901        C902   1.408       .  A
C901        C906   1.419       .  A
C901        H911   1.083       .  S
C902        C903   1.398       .  A
C902        C907   1.503       .  S
C903        C904   1.402       .  A
C903        H908   1.084       .  S
C904        C905   1.425       .  A
C904        H909   1.081       .  S
C905        C906   1.422       .  A
C906        H910   1.077       .  S
C907        C912   1.409       .  A
C907        C916   1.394       .  A
C912        C913   1.421       .  A
C912        H917   1.083       .  S
C913        C914   1.425       .  A
C913        H918   1.081       .  S
C914        C915   1.428       .  A
C915        C916   1.399       .  A
C915        H919   1.070       .  S
C916        H920   1.084       .  S
C921        C922   1.403       .  A
C921        C926   1.394       .  A
C921        H931   1.082       .  S
C922        C923   1.403       .  A
C922        C927   1.488       .  S
C923        C924   1.402       .  A
C923        H928   1.083       .  S
C924        C925   1.416       .  A
C924        H929   1.081       .  S
C925        C926   1.418       .  A
C926        H930   1.080       .  S
C927        C932   1.409       .  A
C927        C936   1.405       .  A
C932        C933   1.403       .  A
C932        H937   1.083       .  S
C933        C934   1.411       .  A
C933        H938   1.083       .  S
C934        C935   1.410       .  A
C935        C936   1.397       .  A
C935        H939   1.083       .  S
C936        H940   1.082       .  S
C941        C942   1.393       .  A
C941        C946   1.397       .  A
C941        H951   1.083       .  S
C942        C943   1.394       .  A
C942        C947   1.451       .  S
C943        C944   1.387       .  A
C943        H948   1.084       .  S
C944        C945   1.411       .  A
C944        H949   1.066       .  S
C945        C946   1.426       .  A
C946        H950   1.078       .  S
C947        C952   1.393       .  A
C947        C956   1.392       .  A
C952        C953   1.383       .  A
C952        H957   1.084       .  S
C953        C954   1.415       .  A
C953        H958   1.084       .  S
C954        C955   1.412       .  A
C955        C956   1.394       .  A
C955        H959   1.077       .  S
C956        H960   1.078       .  S
C961        C962   1.407       .  A
C961        C966   1.409       .  A
C961        H971   1.083       .  S
C962        C963   1.401       .  A
C962        C967   1.480       .  S
C963        C964   1.399       .  A
C963        H968   1.083       .  S
C964        C965   1.415       .  A
C964        H969   1.083       .  S
C965        C966   1.411       .  A
C966        H970   1.083       .  S
C967        C972   1.397       .  A
C967        C976   1.398       .  A
C972        C973   1.391       .  A
C972        H977   1.083       .  S
C973        C974   1.420       .  A
C973        H978   1.084       .  S
C974        C975   1.418       .  A
C975        C976   1.407       .  A
C975        H979   1.067       .  S
C976        H980   1.079       .  S
C981        C982   1.400       .  A
C981        C986   1.396       .  A
C981        H991   1.082       .  S
C982        C983   1.408       .  A
C982        C987   1.484       .  S
C983        C984   1.401       .  A
C983        H988   1.083       .  S
C984        C985   1.400       .  A
C984        H989   1.080       .  S
C985        C986   1.421       .  A
C986        H990   1.083       .  S
C987        C992   1.407       .  A
C987        C996   1.394       .  A
C992        C993   1.404       .  A
C992        H997   1.082       .  S
C993        C994   1.412       .  A
C993        H998   1.083       .  S
C994        C995   1.419       .  A
C995        C996   1.388       .  A
C995        H999   1.074       .  S
C996       H1000   1.084       .  S
C1001      C1002   1.400       .  A
C1001      C1006   1.394       .  A
C1001      H1011   1.080       .  S
C1002      C1003   1.395       .  A
C1002      C1007   1.479       .  S
C1003      C1004   1.404       .  A
C1003      H1008   1.082       .  S
C1004      C1005   1.418       .  A
C1004      H1009   1.061       .  S
C1005      C1006   1.419       .  A
C1006      H1010   1.083       .  S
C1007      C1012   1.404       .  A
C1007      C1016   1.406       .  A
C1012      C1013   1.405       .  A
C1012      H1017   1.083       .  S
C1013      C1014   1.416       .  A
C1013      H1018   1.083       .  S
C1014      C1015   1.412       .  A
C1015      C1016   1.406       .  A
C1015      H1019   1.083       .  S
C1016      H1020   1.083       .  S
C1021      C1022   1.404       .  A
C1021      C1026   1.401       .  A
C1021      H1031   1.082   1_556  S
C1022      C1023   1.392       .  A
C1022      C1027   1.477       .  S
C1023      C1024   1.387       .  A
C1023      H1028   1.084       .  S
C1024      C1025   1.419       .  A
C1024      H1029   1.069       .  S
C1025      C1026   1.415       .  A
C1026      H1030   1.083       .  S
C1027      C1032   1.397       .  A
C1027      C1036   1.409       .  A
C1032      C1033   1.390       .  A
C1032      H1037   1.083       .  S
C1033      C1034   1.421       .  A
C1033      H1038   1.082       .  S
C1034      C1035   1.406       .  A
C1035      C1036   1.403       .  A
C1035      H1039   1.083       .  S
C1036      H1040   1.083   1_556  S
C1041      C1042   1.411       .  A
C1041      C1046   1.426       .  A
C1041      H1051   1.083       .  S
C1042      C1043   1.393       .  A
C1042      C1047   1.507       .  S
C1043      C1044   1.394       .  A
C1043      H1048   1.085       .  S
C1044      C1045   1.426       .  A
C1044      H1049   1.070       .  S
C1045      C1046   1.426       .  A
C1046      H1050   1.080       .  S
C1047      C1052   1.410       .  A
C1047      C1056   1.400       .  A
C1052      C1053   1.423       .  A
C1052      H1057   1.083   1_455  S
C1053      C1054   1.425       .  A
C1053      H1058   1.076       .  S
C1054      C1055   1.423       .  A
C1055      C1056   1.397       .  A
C1055      H1059   1.082       .  S
C1056      H1060   1.084       .  S
C1061      C1062   1.396       .  A
C1061      C1066   1.398       .  A
C1061      H1071   1.078       .  S
C1062      C1063   1.394       .  A
C1062      C1067   1.452       .  S
C1063      C1064   1.380       .  A
C1063      H1068   1.084       .  S
C1064      C1065   1.415       .  A
C1064      H1069   1.083       .  S
C1065      C1066   1.411       .  A
C1066      H1070   1.080       .  S
C1067      C1072   1.396       .  A
C1067      C1076   1.397       .  A
C1072      C1073   1.384       .  A
C1072      H1077   1.085       .  S
C1073      C1074   1.411       .  A
C1073      H1078   1.068       .  S
C1074      C1075   1.421       .  A
C1075      C1076   1.398       .  A
C1075      H1079   1.082       .  S
C1076      H1080   1.083       .  S
C1081      C1082   1.384       .  A
C1081      C1086   1.370       .  A
C1081      H1091   1.085       .  S
C1082      C1083   1.409       .  A
C1082      C1087   1.463       .  S
C1083      C1084   1.410       .  A
C1083      H1088   1.083       .  S
C1084      C1085   1.413       .  A
C1084      H1089   1.082       .  S
C1085      C1086   1.416       .  A
C1086      H1090   1.070       .  S
C1087      C1092   1.405       .  A
C1087      C1096   1.388       .  A
C1092      C1093   1.394       .  A
C1092      H1097   1.083       .  S
C1093      C1094   1.413       .  A
C1093      H1098   1.083       .  S
C1094      C1095   1.424       .  A
C1095      C1096   1.389       .  A
C1095      H1099   1.068       .  S
C1096      H1100   1.084       .  S
C1101      C1102   1.401       .  A
C1101      C1106   1.399       .  A
C1101      H1111   1.080       .  S
C1102      C1103   1.406       .  A
C1102      C1107   1.493       .  S
C1103      C1104   1.402       .  A
C1103      H1108   1.083       .  S
C1104      C1105   1.420       .  A
C1104      H1109   1.080       .  S
C1105      C1106   1.413       .  A
C1106      H1110   1.080       .  S
C1107      C1112   1.405       .  A
C1107      C1116   1.410       .  A
C1112      C1113   1.397       .  A
C1112      H1117   1.082       .  S
C1113      C1114   1.413       .  A
C1113      H1118   1.083       .  S
C1114      C1115   1.409       .  A
C1115      C1116   1.408       .  A
C1115      H1119   1.083       .  S
C1116      H1120   1.083       .  S
C1121      C1122   1.409       .  A
C1121      C1126   1.423       .  A
C1121      H1131   1.083   1_455  S
C1122      C1123   1.397       .  A
C1122      C1127   1.502       .  S
C1123      C1124   1.393       .  A
C1123      H1128   1.084       .  S
C1124      C1125   1.423       .  A
C1124      H1129   1.082       .  S
C1125      C1126   1.427       .  A
C1126      H1130   1.073   1_455  S
C1127      C1132   1.409       .  A
C1127      C1136   1.400       .  A
C1132      C1133   1.420       .  A
C1132      H1137   1.083       .  S
C1133      C1134   1.418       .  A
C1133      H1138   1.081       .  S
C1134      C1135   1.424       .  A
C1135      C1136   1.398       .  A
C1135      H1139   1.082       .  S
C1136      H1140   1.084       .  S
C1141      C1142   1.390       .  A
C1141      C1146   1.381       .  A
C1141      H1151   1.084       .  S
C1142      C1143   1.405       .  A
C1142      C1147   1.471       .  S
C1143      C1144   1.409       .  A
C1143      H1148   1.078       .  S
C1144      C1145   1.409       .  A
C1144      H1149   1.080       .  S
C1145      C1146   1.421       .  A
C1146      H1150   1.084       .  S
C1147      C1152   1.403       .  A
C1147      C1156   1.400       .  A
C1152      C1153   1.401       .  A
C1152      H1157   1.083       .  S
C1153      C1154   1.404       .  A
C1153      H1158   1.083       .  S
C1154      C1155   1.418       .  A
C1155      C1156   1.401       .  A
C1155      H1159   1.083       .  S
C1156      H1160   1.083       .  S
C1161      C1162   1.403       .  A
C1161      C1166   1.406       .  A
C1161      H1171   1.083       .  S
C1162      C1163   1.393       .  A
C1162      C1167   1.482       .  S
C1163      C1164   1.392       .  A
C1163      H1168   1.084       .  S
C1164      C1165   1.421       .  A
C1164      H1169   1.065       .  S
C1165      C1166   1.419       .  A
C1166      H1170   1.083       .  S
C1167      C1172   1.395       .  A
C1167      C1176   1.400       .  A
C1172      C1173   1.396       .  A
C1172      H1177   1.084       .  S
C1173      C1174   1.425       .  A
C1173      H1178   1.072       .  S
C1174      C1175   1.420       .  A
C1175      C1176   1.401       .  A
C1175      H1179   1.076       .  S
C1176      H1180   1.083       .  S
C1181      C1182   1.406       .  A
C1181      C1186   1.390       .  A
C1181      H1191   1.083       .  S
C1182      C1183   1.396       .  A
C1182      C1187   1.458       .  S
C1183      C1184   1.394       .  A
C1183      H1188   1.083       .  S
C1184      C1185   1.417       .  A
C1184      H1189   1.083       .  S
C1185      C1186   1.399       .  A
C1186      H1190   1.083       .  S
C1187      C1192   1.401       .  A
C1187      C1196   1.391       .  A
C1192      C1193   1.406       .  A
C1192      H1197   1.083       .  S
C1193      C1194   1.415       .  A
C1193      H1198   1.081       .  S
C1194      C1195   1.408       .  A
C1195      C1196   1.367       .  A
C1195      H1199   1.081       .  S
C1196      H1200   1.080       .  S
C1201      C1202   1.404       .  A
C1201      C1206   1.403       .  A
C1201      H1211   1.083       .  S
C1202      C1203   1.398       .  A
C1202      C1207   1.483       .  S
C1203      C1204   1.394       .  A
C1203      H1208   1.083       .  S
C1204      C1205   1.415       .  A
C1204      H1209   1.067       .  S
C1205      C1206   1.420       .  A
C1206      H1210   1.083       .  S
C1207      C1212   1.401       .  A
C1207      C1216   1.400       .  A
C1212      C1213   1.399       .  A
C1212      H1217   1.084       .  S
C1213      C1214   1.415       .  A
C1213      H1218   1.071       .  S
C1214      C1215   1.417       .  A
C1215      C1216   1.397       .  A
C1215      H1219   1.080       .  S
C1216      H1220   1.083       .  S
C1221      C1222   1.394       .  A
C1221      C1226   1.384       .  A
C1221      H1231   1.084       .  S
C1222      C1223   1.404       .  A
C1222      C1227   1.472       .  S
C1223      C1224   1.405       .  A
C1223      H1228   1.078       .  S
C1224      C1225   1.409       .  A
C1224      H1229   1.082       .  S
C1225      C1226   1.416       .  A
C1226      H1230   1.082       .  S
C1227      C1232   1.409       .  A
C1227      C1236   1.396       .  A
C1232      C1233   1.404       .  A
C1232      H1237   1.083       .  S
C1233      C1234   1.404       .  A
C1233      H1238   1.083       .  S
C1234      C1235   1.419       .  A
C1235      C1236   1.394       .  A
C1235      H1239   1.082       .  S
C1236      H1240   1.083       .  S
