geometry optimzed in LAMMPS
_audit_creation_date              2020-11-30 
_audit_creation_method            'lammps2cif' 
_symmetry_space_group_name_H-M    'P1' 
_symmetry_Int_Tables_number       1 
_symmetry_cell_setting            triclinic 
loop_ 
_symmetry_equiv_pos_as_xyz 
  x,y,z 
_cell_length_a                    44.20330386 
_cell_length_b                    43.78564392716938 
_cell_length_c                    57.77270114601229 
_cell_angle_alpha                 92.32091957490822 
_cell_angle_beta                  88.2530885980586 
_cell_angle_gamma                 124.28615092634865 
loop_ 
_atom_site_label 
_atom_site_type_symbol 
_atom_site_fract_x 
_atom_site_fract_y 
_atom_site_fract_z 
_atom_site_charge 
C1          C  0.02626510  0.71600281  0.31388780     0.03900
C2          C  0.02572180  0.68948660  0.32683201    -0.12200
C3          C  0.05536159  0.69873769  0.34044816     0.01400
C4          C  0.08686095  0.73500351  0.34070643    -0.10700
C5          C  0.08856157  0.76259984  0.32760197     0.03900
C6          C  0.05746323  0.75263486  0.31450368    -0.10200
H7          H  0.00164683  0.66128870  0.32660125     0.09500
H8          H  0.11004706  0.74103851  0.35067446     0.07100
H9          H  0.05691355  0.77331112  0.30531909     0.06900
C10         C  0.16275614  0.86001083  0.30752600     0.03900
C11         C  0.18670477  0.87368844  0.32644866    -0.12200
C12         C  0.17960628  0.85177771  0.34564582     0.01400
C13         C  0.14698001  0.81606350  0.34624351    -0.10700
C14         C  0.12259652  0.80133842  0.32736862     0.03900
C15         C  0.13120599  0.82376840  0.30807368    -0.10200
H16         H  0.21092013  0.90164712  0.32655780     0.09500
H17         H  0.14008234  0.80008954  0.36158885     0.07100
H18         H  0.11366029  0.81304151  0.29306921     0.06900
C19         C  0.81925180  0.19151106  0.64308871     0.03900
C20         C  0.78714356  0.15583562  0.64449253    -0.12200
C21         C  0.77859824  0.13473926  0.66442111     0.01400
C22         C  0.80345531  0.15016316  0.68308685    -0.10700
C23         C  0.83609407  0.18584850  0.68182605     0.03900
C24         C  0.84323073  0.20639774  0.66197084    -0.10200
H25         H  0.76909032  0.14436954  0.62971561     0.09500
H26         H  0.79694693  0.13489969  0.69878743     0.07100
H27         H  0.86757972  0.23430994  0.66141895     0.06900
C28         C  0.68002010  0.05171233  0.65425053     0.03900
C29         C  0.71202141  0.08781913  0.65402979    -0.12200
C30         C  0.74401882  0.09664170  0.66547772     0.01400
C31         C  0.74301519  0.06857805  0.67749391    -0.10700
C32         C  0.71072974  0.03270895  0.67840882     0.03900
C33         C  0.67973314  0.02482103  0.66668913    -0.10200
H34         H  0.71174416  0.10906444  0.64533588     0.09500
H35         H  0.76755521  0.07439976  0.68551869     0.07100
H36         H  0.65495899  0.99711245  0.66708841     0.06900
O37         O  0.42915895  0.89778596  0.49784926    -0.73600
O38         O  0.39064470  0.94442998  0.53357758    -0.73600
O39         O  0.36695128  0.89646667  0.49649474    -0.73700
O40         O  0.45272638  0.94590901  0.53478984    -0.73700
O41         O  0.47998970  0.99336268  0.51097177    -0.73700
O42         O  0.39467589  0.94400861  0.47277122    -0.73700
O43         O  0.41769156  0.99183529  0.50973044    -0.73600
O44         O  0.45695797  0.94534515  0.47411952    -0.73700
Ni45       Ni  0.40886733  0.91944686  0.51650473     1.25400
Ni46       Ni  0.43828740  0.97029113  0.49103585     1.25400
C47         C  0.44968976  0.91399651  0.48023756     0.88600
C48         C  0.39791486  0.97583216  0.52767084     0.88500
C49         C  0.36662941  0.91226720  0.47838386     0.88500
C50         C  0.48049193  0.97783431  0.52913378     0.88700
O51         O  0.94497467  0.41777572  0.46750050    -0.73600
O52         O  0.92671876  0.47190117  0.51266046    -0.73600
O53         O  0.95482376  0.48486998  0.46895051    -0.73700
O54         O  0.91777670  0.40499292  0.51145077    -0.73700
O55         O  0.97434091  0.43182902  0.52496906    -0.73700
O56         O  0.01074925  0.51067262  0.48331133    -0.73700
O57         O  0.98282157  0.49819467  0.52678891    -0.73600
O58         O  0.00138101  0.44395708  0.48112979    -0.73700
Ni59       Ni  0.93401772  0.44392381  0.48964336     1.25400
Ni60       Ni  0.99426809  0.47205309  0.50454326     1.25400
C61         C  0.97602690  0.42191292  0.46678275     0.88600
C62         C  0.95170517  0.49409363  0.52709071     0.88500
C63         C  0.98910006  0.51099465  0.46934956     0.88500
C64         C  0.94041004  0.40544831  0.52514337     0.88700
C65         C  0.50608967  0.92810870  0.97942503     0.03900
C66         C  0.52689726  0.93985838  0.99971865    -0.12200
C67         C  0.51408151  0.94736422  0.02024854     0.01400
C68         C  0.48042547  0.94356302  0.02015081    -0.10700
C69         C  0.45983374  0.93331552  0.99972689     0.03900
C70         C  0.47336263  0.92612227  0.97934904    -0.10200
H71         H  0.55354499  0.94425790  0.99920946     0.09500
H72         H  0.47028464  0.94837209  0.03621689     0.07100
H73         H  0.45852989  0.91884976  0.96326884     0.06900
C74         C  0.38669260  0.95162523  0.01439053     0.03900
C75         C  0.41947403  0.95369064  0.01436971    -0.12200
C76         C  0.42460965  0.93056774  0.99963766     0.01400
C77         C  0.39614623  0.90534530  0.98458209    -0.10700
C78         C  0.36376226  0.90403845  0.98351217     0.03900
C79         C  0.35940201  0.92756512  0.99839375    -0.10200
H80         H  0.44118171  0.97389234  0.02575207     0.09500
H81         H  0.39908871  0.88667774  0.97344806     0.07100
H82         H  0.33572073  0.92851957  0.99688786     0.06900
C83         C  0.92106440  0.35695344  0.99234917     0.03900
C84         C  0.90107800  0.33283826  0.01031480    -0.12200
C85         C  0.87924191  0.33853797  0.02547085     0.01400
C86         C  0.87658408  0.36848279  0.02196968    -0.10700
C87         C  0.89815670  0.39494619  0.00491093     0.03900
C88         C  0.92017754  0.38837272  0.98991539    -0.10200
H89         H  0.90209622  0.30890174  0.01216569     0.09500
H90         H  0.85807060  0.37120181  0.03308146     0.07100
H91         H  0.93777276  0.40805267  0.97698832     0.06900
C92         C  0.88705059  0.47426138  0.02179872     0.03900
C93         C  0.89874039  0.49414313  0.00130587    -0.12200
C94         C  0.91016664  0.48264973  0.98200835     0.01400
C95         C  0.90920523  0.45000012  0.98295486    -0.10700
C96         C  0.89847531  0.42961447  0.00352107     0.03900
C97         C  0.88831104  0.44295101  0.02298778    -0.10200
H98         H  0.90031651  0.51963285  0.00037992     0.09500
H99         H  0.91612172  0.44040102  0.96750210     0.07100
H100        H  0.88138033  0.42932353  0.03935012     0.06900
C101        C  0.06361175  0.29589525  0.34956679     0.03900
C102        C  0.03454455  0.27251828  0.33434745    -0.12200
C103        C  0.03669527  0.24840940  0.31866421     0.01400
C104        C  0.06779003  0.24736415  0.31853078    -0.10700
C105        C  0.09812971  0.27200826  0.33249481     0.03900
C106        C  0.09567242  0.29644383  0.34779940    -0.10200
H107        H  0.01021864  0.27275071  0.33472145     0.09500
H108        H  0.06819506  0.22731482  0.30720320     0.07100
H109        H  0.11868196  0.31612233  0.35853955     0.06900
C110        C  0.17307012  0.26060963  0.30877246     0.03900
C111        C  0.14185753  0.26153295  0.31023001    -0.12200
C112        C  0.13215166  0.27221753  0.33098551     0.01400
C113        C  0.15532297  0.28325824  0.35020010    -0.10700
C114        C  0.18764294  0.28438991  0.34876312     0.03900
C115        C  0.19637584  0.27298939  0.32799572    -0.10200
H116        H  0.12525114  0.25391383  0.29492782     0.09500
H117        H  0.14831504  0.29081398  0.36657472     0.07100
H118        H  0.22197456  0.27521377  0.32653389     0.06900
O119        O  0.23614854  0.12203187  0.17088218    -0.73600
O120        O  0.25321543  0.06593662  0.12606456    -0.73600
O121        O  0.23786188  0.06106584  0.17207057    -0.73700
O122        O  0.25133642  0.12680223  0.12466754    -0.73700
O123        O  0.31122020  0.16255097  0.13176896    -0.73700
O124        O  0.29759892  0.09696792  0.17961486    -0.73700
O125        O  0.31297976  0.10165588  0.13361504    -0.73600
O126        O  0.29603805  0.15783562  0.17804828    -0.73700
Ni127      Ni  0.24252537  0.09271251  0.14812798     1.25400
Ni128      Ni  0.30657985  0.13106741  0.15601385     1.25400
C129        C  0.26343128  0.14902569  0.18201366     0.88600
C130        C  0.28582334  0.07438677  0.12261974     0.88500
C131        C  0.26551743  0.06816743  0.18365292     0.88500
C132        C  0.28337985  0.15539530  0.12032722     0.88700
C133        C  0.60203598  0.70309989  0.32513243     0.03900
C134        C  0.59867018  0.73304980  0.32709367    -0.12200
C135        C  0.58746804  0.74177876  0.34810464     0.01400
C136        C  0.57588281  0.71683511  0.36649603    -0.10700
C137        C  0.57563220  0.68445190  0.36401997     0.03900
C138        C  0.58998363  0.67870605  0.34350066    -0.10200
H139        H  0.60587492  0.74996375  0.31211777     0.09500
H140        H  0.56719422  0.72237584  0.38289754     0.07100
H141        H  0.59199842  0.65530771  0.34170240     0.06900
C142        C  0.57136353  0.81612202  0.37015810     0.03900
C143        C  0.56820619  0.78222974  0.36762591    -0.12200
C144        C  0.58930242  0.77735597  0.35069609     0.01400
C145        C  0.61312251  0.80744693  0.33621856    -0.10700
C146        C  0.61457578  0.84029865  0.33769237     0.03900
C147        C  0.59376421  0.84422684  0.35458004    -0.10200
H148        H  0.54941348  0.76007165  0.37892886     0.09500
H149        H  0.63153738  0.80619993  0.32414451     0.07100
H150        H  0.59451259  0.86940599  0.35512534     0.06900
O151        O  0.81441255  0.66220466  0.18013654    -0.73600
O152        O  0.72456763  0.61206705  0.14629646    -0.73600
O153        O  0.74653176  0.64687478  0.18848617    -0.73700
O154        O  0.79245969  0.62692577  0.13784848    -0.73700
O155        O  0.77562798  0.57401189  0.15386691    -0.73700
O156        O  0.72929183  0.59339413  0.20389119    -0.73700
O157        O  0.70781830  0.55866433  0.16157195    -0.73600
O158        O  0.79747749  0.60914166  0.19601514    -0.73700
Ni159      Ni  0.77013677  0.63892179  0.16261968     1.25400
Ni160      Ni  0.75197730  0.58195990  0.17941242     1.25400
C161        C  0.82064346  0.64407578  0.19379339     0.88600
C162        C  0.70146748  0.57710319  0.14823625     0.88500
C163        C  0.73024232  0.62319023  0.20450924     0.88500
C164        C  0.79128686  0.59693407  0.13745039     0.88700
O165        O  0.80827751  0.10819651  0.14353340    -0.73600
O166        O  0.76585511  0.02713518  0.18450597    -0.73600
O167        O  0.74964608  0.03703821  0.14167165    -0.73700
O168        O  0.82408055  0.09864592  0.18656389    -0.73700
O169        O  0.78849227  0.11541819  0.20206024    -0.73700
O170        O  0.71491253  0.05461935  0.15749081    -0.73700
O171        O  0.73044897  0.04387150  0.20034020    -0.73600
O172        O  0.77334121  0.12575153  0.15903844    -0.73700
Ni173      Ni  0.78821300  0.06712626  0.16351657     1.25400
Ni174      Ni  0.75051390  0.08546929  0.18029745     1.25400
C175        C  0.79792436  0.13025661  0.14441934     0.88600
C176        C  0.74142642  0.02220578  0.19926651     0.88500
C177        C  0.72019893  0.03623990  0.14207712     0.88500
C178        C  0.81832991  0.11714209  0.20172567     0.88700
C179        C  0.35910292  0.40448454  0.98121346     0.03900
C180        C  0.39221510  0.43945139  0.98422243    -0.12200
C181        C  0.42009322  0.44477126  0.99871365     0.01400
C182        C  0.41340435  0.41415220  0.01086111    -0.10700
C183        C  0.37965833  0.37950755  0.00942076     0.03900
C184        C  0.35280556  0.37482083  0.99428879    -0.10200
H185        H  0.39616899  0.46248096  0.97498884     0.09500
H186        H  0.43452881  0.41699959  0.02158636     0.07100
H187        H  0.32708870  0.34816015  0.99263716     0.06900
C188        C  0.50420839  0.54172473  0.98479614     0.03900
C189        C  0.47049530  0.50705315  0.98262668    -0.12200
C190        C  0.45613275  0.48194005  0.00106037     0.01400
C191        C  0.47685053  0.49241259  0.02164434    -0.10700
C192        C  0.51092620  0.52661684  0.02370044     0.03900
C193        C  0.52385820  0.55100824  0.00537806    -0.10200
H194        H  0.45627457  0.49919906  0.96631691     0.09500
H195        H  0.46628095  0.47454259  0.03633901     0.07100
H196        H  0.54999149  0.57743833  0.00702943     0.06900
C197        C  0.83079311  0.58940828  0.64144027     0.03900
C198        C  0.80066381  0.59229431  0.64229867    -0.12200
C199        C  0.79117807  0.60355931  0.66294698     0.01400
C200        C  0.81261912  0.61172356  0.68277827    -0.10700
C201        C  0.84307959  0.60946555  0.68221262     0.03900
C202        C  0.85158142  0.59783500  0.66149996    -0.10200
H203        H  0.78509693  0.58627245  0.62668454     0.09500
H204        H  0.80545941  0.61947826  0.69900570     0.07100
H205        H  0.87393628  0.59454782  0.66086223     0.06900
C206        C  0.72819149  0.63427116  0.68158125     0.03900
C207        C  0.69838040  0.61195949  0.66683381    -0.12200
C208        C  0.69805297  0.58681224  0.65090026     0.01400
C209        C  0.72804192  0.58357743  0.65002541    -0.10700
C210        C  0.75909779  0.60680488  0.66397020     0.03900
C211        C  0.75896102  0.63268323  0.67934320    -0.10200
H212        H  0.67535462  0.61444845  0.66746187     0.09500
H213        H  0.72684216  0.56243176  0.63897443     0.07100
H214        H  0.78251255  0.65138078  0.68998237     0.06900
O215        O  0.61242627  0.75750806  0.79911777    -0.73600
O216        O  0.59620780  0.81453428  0.84319699    -0.73600
O217        O  0.63241767  0.82814954  0.80200472    -0.73700
O218        O  0.57600505  0.74371769  0.84016336    -0.73700
O219        O  0.62667455  0.75930278  0.85853037    -0.73700
O220        O  0.68319319  0.84513401  0.82080931    -0.73700
O221        O  0.64672500  0.83032778  0.86189732    -0.73600
O222        O  0.66355246  0.77409120  0.81734830    -0.73700
Ni223      Ni  0.60251399  0.78544538  0.82046317     1.25400
Ni224      Ni  0.65688074  0.80279630  0.84031362     1.25400
C225        C  0.64073070  0.75664414  0.80083439     0.88600
C226        C  0.61851921  0.83131691  0.86001964     0.88500
C227        C  0.66702487  0.85043600  0.80498495     0.88500
C228        C  0.59189810  0.73757383  0.85566956     0.88700
C229        C  0.27168956  0.03351119  0.66332538     0.03900
C230        C  0.24965695  0.00733816  0.67998456    -0.12200
C231        C  0.22692406  0.01202029  0.69494801     0.01400
C232        C  0.22554385  0.04293522  0.69264784    -0.10700
C233        C  0.24914385  0.07130111  0.67715231     0.03900
C234        C  0.27222023  0.06597937  0.66243548    -0.10200
H235        H  0.24955977  0.98260578  0.68086072     0.09500
H236        H  0.20610171  0.04463742  0.70339979     0.07100
H237        H  0.29134695  0.08721640  0.65077944     0.06900
C238        C  0.23434564  0.14742504  0.69564310     0.05700
C239        C  0.23686085  0.11687506  0.69614998    -0.12200
C240        C  0.24975308  0.10618816  0.67680887     0.01400
C241        C  0.26282983  0.12902105  0.65730244    -0.10700
C242        C  0.26318827  0.16142446  0.65715928     0.03900
C243        C  0.24810582  0.16976694  0.67612383    -0.10200
H244        H  0.22835418  0.10147409  0.71189013     0.09500
H245        H  0.27183583  0.12131067  0.64193207     0.07100
H246        H  0.24830121  0.19457871  0.67583394     0.06900
O247        O  0.14067585  0.31610592  0.84948151    -0.73600
O248        O  0.06030344  0.28198390  0.80681723    -0.73600
O249        O  0.07963366  0.31740649  0.84900152    -0.73700
O250        O  0.12197566  0.28202251  0.80661334    -0.73700
O251        O  0.09118121  0.22691801  0.82291240    -0.73700
O252        O  0.04742146  0.26277672  0.86588361    -0.73700
O253        O  0.02980943  0.22731330  0.82367300    -0.73600
O254        O  0.10825817  0.26099078  0.86575144    -0.73700
Ni255      Ni  0.10181361  0.30131704  0.82740385     1.25400
Ni256      Ni  0.06809308  0.24260900  0.84518926     1.25400
C257        C  0.13732671  0.29370843  0.86473244     0.88600
C258        C  0.03178662  0.24865018  0.80836564     0.88500
C259        C  0.05622432  0.29610154  0.86417001     0.88500
C260        C  0.11372577  0.24900849  0.80743916     0.88700
O261        O  0.11544725  0.77409359  0.86629760    -0.73600
O262        O  0.04746857  0.72004838  0.81741044    -0.73600
O263        O  0.05683143  0.70332758  0.86014837    -0.73700
O264        O  0.10589912  0.79034681  0.82315280    -0.73700
O265        O  0.14245037  0.77421577  0.80853315    -0.73700
O266        O  0.09324712  0.68743600  0.84492290    -0.73700
O267        O  0.08365511  0.70395642  0.80206514    -0.73600
O268        O  0.15169303  0.75770799  0.85148259    -0.73700
Ni269      Ni  0.08014936  0.74755488  0.84230914     1.25400
Ni270      Ni  0.11907833  0.73028830  0.82621547     1.25400
C271        C  0.14451575  0.77442782  0.86714439     0.88600
C272        C  0.05436870  0.70336992  0.80161668     0.88500
C273        C  0.06707359  0.68108518  0.85857685     0.88500
C274        C  0.13199942  0.79620459  0.80950372     0.88700
O275        O  0.44011694  0.34287165  0.50469516    -0.73600
O276        O  0.48580348  0.42333229  0.46251525    -0.73600
O277        O  0.50506706  0.40999114  0.50319543    -0.73700
O278        O  0.42121443  0.35625296  0.46399509    -0.73700
O279        O  0.39631877  0.38271539  0.48264181    -0.73700
O280        O  0.47947420  0.43493108  0.52283922    -0.73700
O281        O  0.46118745  0.44937601  0.48200307    -0.73600
O282        O  0.41403654  0.36796293  0.52348583    -0.73700
Ni283      Ni  0.46396644  0.38222381  0.48293746     1.25400
Ni284      Ni  0.43687596  0.40964853  0.50347551     1.25400
C285        C  0.41924158  0.34198875  0.52093957     0.88600
C286        C  0.48080203  0.44941923  0.46516689     0.88500
C287        C  0.50605706  0.43115925  0.51953494     0.88500
C288        C  0.39530932  0.36107224  0.46658721     0.88700
C289        C  0.32258341  0.22103078  0.60475990     0.19500
C290        C  0.34356969  0.21846896  0.58698075    -0.18600
C291        C  0.36135539  0.24556895  0.57009361    -0.10900
C292        C  0.35878629  0.27627858  0.57069615     0.21800
C293        C  0.33784227  0.27875787  0.58849264    -0.20200
C294        C  0.32019614  0.25181491  0.60532791    -0.11000
C295        C  0.37728300  0.30657049  0.55354148    -0.15200
C296        C  0.40121266  0.31042251  0.53688251    -0.29100
C297        C  0.30522633  0.19226620  0.62293934    -0.03300
C298        C  0.27820799  0.18717690  0.63739889    -0.39900
H299        H  0.34623912  0.19528061  0.58613756     0.12900
H300        H  0.37688992  0.24210763  0.55674241     0.12500
H301        H  0.33547112  0.30215063  0.58961030     0.12000
H302        H  0.30556198  0.25599171  0.61901325     0.12200
H303        H  0.37120465  0.32741331  0.55503444     0.15000
H304        H  0.40826589  0.29046286  0.53475054     0.13700
H305        H  0.31578760  0.17530429  0.62469424     0.11400
H306        H  0.26748197  0.20394814  0.63564378     0.13400
C307        C  0.14659653  0.19713161  0.76911035     0.19500
C308        C  0.15605936  0.17197159  0.77286155    -0.18600
C309        C  0.17431211  0.16431968  0.75561955    -0.10900
C310        C  0.18329930  0.18151982  0.73401130     0.21800
C311        C  0.17324840  0.20616636  0.73022863    -0.20200
C312        C  0.15515570  0.21380656  0.74738671    -0.11000
C313        C  0.20161740  0.17395696  0.71448349    -0.15200
C314        C  0.21771906  0.15544158  0.71602957    -0.29100
C315        C  0.12748717  0.20523962  0.78783308    -0.03300
C316        C  0.13120178  0.23802797  0.78963487    -0.39900
H317        H  0.14954421  0.15837612  0.78929032     0.12900
H318        H  0.18072907  0.14456374  0.75928437     0.12500
H319        H  0.17926685  0.21956121  0.71375367     0.12000
H320        H  0.14732878  0.23234253  0.74331415     0.12200
H321        H  0.20120089  0.18402151  0.69770514     0.15000
H322        H  0.21757049  0.14428879  0.73248973     0.13700
H323        H  0.11139262  0.18458011  0.80076927     0.11400
H324        H  0.14911807  0.25926648  0.77745634     0.13400
C325        C  0.15811033  0.88130570  0.77435172     0.19500
C326        C  0.13868698  0.89135283  0.76145605    -0.18600
C327        C  0.15697215  0.91987573  0.74549340    -0.10900
C328        C  0.19519372  0.93907833  0.74237161     0.21800
C329        C  0.21458405  0.93009125  0.75610899    -0.20200
C330        C  0.19643253  0.90185905  0.77199717    -0.11000
C331        C  0.21599224  0.96681288  0.72413902    -0.15200
C332        C  0.20417110  0.98469392  0.71307511    -0.29100
C333        C  0.13819311  0.84928310  0.79000293    -0.03300
C334        C  0.15100327  0.82855884  0.79447857    -0.39900
H335        H  0.10915649  0.87628325  0.76316947     0.12900
H336        H  0.14096698  0.92577714  0.73516303     0.12500
H337        H  0.24405260  0.94471716  0.75433427     0.12000
H338        H  0.21258977  0.89615215  0.78234671     0.12200
H339        H  0.24323576  0.97358467  0.72006636     0.15000
H340        H  0.17863803  0.98116291  0.71828829     0.13700
H341        H  0.11173024  0.84150159  0.79702823     0.11400
H342        H  0.17584258  0.83431102  0.78590826     0.13400
C343        C  0.57263380  0.49062401  0.56920297     0.19500
C344        C  0.56723002  0.49644280  0.59257463    -0.18600
C345        C  0.59657458  0.51427191  0.60796831    -0.10900
C346        C  0.63241889  0.52773445  0.60013091     0.21800
C347        C  0.63779943  0.52210090  0.57668407    -0.20200
C348        C  0.60834959  0.50386161  0.56135280    -0.11000
C349        C  0.66482038  0.54771949  0.61567947    -0.15200
C350        C  0.66516891  0.56403068  0.63604724    -0.29100
C351        C  0.54056484  0.47122042  0.55350537    -0.03300
C352        C  0.53860318  0.45127189  0.53456580    -0.39900
H353        H  0.53997105  0.48654079  0.59906300     0.12900
H354        H  0.59074118  0.51687109  0.62596496     0.12500
H355        H  0.66506195  0.53226884  0.57010936     0.12000
H356        H  0.61378354  0.50080740  0.54332258     0.12200
H357        H  0.68986219  0.55112248  0.60929239     0.15000
H358        H  0.64104422  0.56321301  0.64148201     0.13700
H359        H  0.51695454  0.47189207  0.55839319     0.11400
H360        H  0.56104006  0.44845299  0.53022025     0.13400
C361        C  0.68148074  0.71229883  0.76417394     0.19500
C362        C  0.71703761  0.72383738  0.75721998    -0.18600
C363        C  0.72261759  0.70433326  0.73971199    -0.10900
C364        C  0.69251763  0.67251962  0.72899312     0.21800
C365        C  0.65704822  0.66059410  0.73646204    -0.20200
C366        C  0.65153048  0.68007736  0.75383477    -0.11000
C367        C  0.69606753  0.65010576  0.71041065    -0.15200
C368        C  0.72748284  0.65914039  0.69962295    -0.29100
C369        C  0.67627991  0.73397935  0.78236712    -0.03300
C370        C  0.64638907  0.73497539  0.78324266    -0.39900
H371        H  0.74057748  0.74830814  0.76516250     0.12900
H372        H  0.75044581  0.71427108  0.73489576     0.12500
H373        H  0.63333322  0.63594665  0.72882189     0.12000
H374        H  0.62373076  0.66943315  0.75931220     0.12200
H375        H  0.67092514  0.62404488  0.70557540     0.15000
H376        H  0.75340381  0.68402398  0.70467478     0.13700
H377        H  0.69821212  0.75072164  0.79467645     0.11400
H378        H  0.62544205  0.72022756  0.77012617     0.13400
C379        C  0.97100430  0.66518267  0.76215226     0.19500
C380        C  0.94856307  0.67765389  0.75828440    -0.18600
C381        C  0.92346305  0.66253407  0.74022364    -0.10900
C382        C  0.91968096  0.63387837  0.72586573     0.21800
C383        C  0.94180202  0.62100812  0.72993820    -0.20200
C384        C  0.96712758  0.63633992  0.74796628    -0.11000
C385        C  0.89487298  0.61850996  0.70562322    -0.15200
C386        C  0.86592210  0.62088205  0.70343357    -0.29100
C387        C  0.99762685  0.68290162  0.78132152    -0.03300
C388        C  0.02827964  0.68341278  0.78250656    -0.39900
H389        H  0.95105062  0.69985889  0.76898621     0.12900
H390        H  0.90797475  0.67421567  0.73727227     0.12500
H391        H  0.93952373  0.59904843  0.71909085     0.12000
H392        H  0.98327142  0.62531950  0.75080163     0.12200
H393        H  0.90125286  0.60484361  0.69230443     0.15000
H394        H  0.85861845  0.63229287  0.71781711     0.13700
H395        H  0.99249459  0.69784231  0.79457747     0.11400
H396        H  0.03506055  0.67016256  0.76903880     0.13400
C397        C  0.52324783  0.60139316  0.93115839     0.19500
C398        C  0.50596443  0.61704569  0.92205535    -0.18600
C399        C  0.52482944  0.64669754  0.90692278    -0.10900
C400        C  0.56136456  0.66099545  0.90031283     0.21800
C401        C  0.57812521  0.64449177  0.90886550    -0.20200
C402        C  0.55930573  0.61492082  0.92391478    -0.11000
C403        C  0.58353159  0.69390127  0.88544837    -0.15200
C404        C  0.56910186  0.70491976  0.87035705    -0.29100
C405        C  0.50361872  0.57171574  0.94855853    -0.03300
C406        C  0.52165527  0.56860542  0.96572333    -0.39900
H407        H  0.47818138  0.60709260  0.92725359     0.12900
H408        H  0.51106037  0.65897120  0.90107456     0.12500
H409        H  0.60605357  0.65462300  0.90392844     0.12000
H410        H  0.57313730  0.60276814  0.92987754     0.12200
H411        H  0.61316655  0.70899316  0.88645721     0.15000
H412        H  0.53964814  0.68914662  0.86814089     0.13700
H413        H  0.47392151  0.55430213  0.94831944     0.11400
H414        H  0.55101192  0.58873039  0.96691593     0.13400
C415        C  0.22583632  0.34581910  0.90243715     0.19500
C416        C  0.24928019  0.38180311  0.91191391    -0.18600
C417        C  0.27574803  0.38975850  0.92845832    -0.10900
C418        C  0.27975734  0.36183362  0.93573349     0.21800
C419        C  0.25672567  0.32612169  0.92587130    -0.20200
C420        C  0.23035040  0.31820089  0.90948249    -0.11000
C421        C  0.30732390  0.36788122  0.95317802    -0.15200
C422        C  0.33152245  0.40016955  0.96447509    -0.29100
C423        C  0.19751678  0.33790836  0.88498601    -0.03300
C424        C  0.16656544  0.30388304  0.88165833    -0.39900
H425        H  0.24684775  0.40379774  0.90667829     0.12900
H426        H  0.29281152  0.41776064  0.93533494     0.12500
H427        H  0.25921410  0.30401018  0.93080327     0.12000
H428        H  0.21404693  0.29044450  0.90211606     0.12200
H429        H  0.30811606  0.34411747  0.95642733     0.15000
H430        H  0.33272685  0.42485131  0.96068232     0.13700
H431        H  0.20162099  0.36071727  0.87530195     0.11400
H432        H  0.16131180  0.28165949  0.89245968     0.13400
C433        C  0.62272266  0.55769458  0.10870050     0.19500
C434        C  0.60697909  0.57716371  0.10436100    -0.18600
C435        C  0.57845676  0.56328172  0.08852317    -0.10900
C436        C  0.56526979  0.52964383  0.07628096     0.21800
C437        C  0.58003659  0.50943054  0.08124055    -0.20200
C438        C  0.60857633  0.52330474  0.09717349    -0.11000
C439        C  0.53721944  0.51570055  0.05773894    -0.15200
C440        C  0.53411530  0.53865833  0.04471402    -0.29100
C441        C  0.65550685  0.57560956  0.12387621    -0.03300
C442        C  0.66725279  0.55740110  0.13461714    -0.39900
H443        H  0.61714810  0.60360633  0.11307532     0.12900
H444        H  0.56704547  0.57911205  0.08581892     0.12500
H445        H  0.57037585  0.48341476  0.07211374     0.12000
H446        H  0.62033143  0.50772775  0.09966980     0.12200
H447        H  0.52149207  0.48636276  0.05314287     0.15000
H448        H  0.55257060  0.56828738  0.04786266     0.13700
H449        H  0.67063945  0.60548220  0.12643078     0.11400
H450        H  0.65146548  0.52739159  0.13364281     0.13400
C451        C  0.69103266  0.95630954  0.25042287     0.19500
C452        C  0.67810716  0.96035265  0.27200799    -0.18600
C453        C  0.66371394  0.93259063  0.28830978    -0.10900
C454        C  0.66200109  0.89980688  0.28350114     0.21800
C455        C  0.67493861  0.89572363  0.26188399    -0.20200
C456        C  0.68928439  0.92353608  0.24550110    -0.11000
C457        C  0.64434944  0.86835823  0.29975729    -0.15200
C458        C  0.63795464  0.87197271  0.32232072    -0.29100
C459        C  0.70473504  0.98631817  0.23341293    -0.03300
C460        C  0.72652778  0.99103863  0.21518403    -0.39900
H461        H  0.67871905  0.98504949  0.27622331     0.12900
H462        H  0.65291600  0.93672366  0.30424320     0.12500
H463        H  0.67343581  0.87057181  0.25748302     0.12000
H464        H  0.69793517  0.91867589  0.22889832     0.12200
H465        H  0.63481491  0.84103781  0.29258129     0.15000
H466        H  0.64755776  0.89911325  0.32969154     0.13700
H467        H  0.69781002  0.00633965  0.23663209     0.11400
H468        H  0.73547811  0.97266533  0.21227046     0.13400
C469        C  0.50809564  0.53656347  0.43107737     0.19500
C470        C  0.51016188  0.56930704  0.43650157    -0.18600
C471        C  0.52429233  0.59768414  0.42048240    -0.10900
C472        C  0.53628479  0.59369512  0.39841673     0.21800
C473        C  0.53384296  0.56078972  0.39295646    -0.20200
C474        C  0.51998529  0.53261301  0.40896372    -0.11000
C475        C  0.54963524  0.62172036  0.38000837    -0.15200
C476        C  0.56163500  0.65767553  0.38338397    -0.29100
C477        C  0.49215116  0.50673596  0.44849329    -0.03300
C478        C  0.49779242  0.47943383  0.44816265    -0.39900
H479        H  0.50068418  0.57293655  0.45326271     0.12900
H480        H  0.52486454  0.62211925  0.42528795     0.12500
H481        H  0.54246283  0.55664036  0.37600175     0.12000
H482        H  0.51785594  0.50755114  0.40363685     0.12200
H483        H  0.54937402  0.61153947  0.36255240     0.15000
H484        H  0.56098829  0.66795718  0.40065865     0.13700
H485        H  0.47551014  0.50769162  0.46238507     0.11400
H486        H  0.51532388  0.47859659  0.43497867     0.13400
C487        C  0.69146674  0.66513185  0.24614581     0.19500
C488        C  0.67746509  0.68665795  0.24331328    -0.18600
C489        C  0.66008665  0.69297595  0.26176208    -0.10900
C490        C  0.65658474  0.67799637  0.28359392     0.21800
C491        C  0.67128199  0.65712531  0.28646347    -0.20200
C492        C  0.68852237  0.65077824  0.26807550    -0.11000
C493        C  0.63889563  0.68382430  0.30411895    -0.15200
C494        C  0.61855716  0.69798742  0.30367745    -0.29100
C495        C  0.70986801  0.65902194  0.22619213    -0.03300
C496        C  0.71213206  0.62958988  0.22423518    -0.39900
H497        H  0.67980294  0.69848139  0.22668935     0.12900
H498        H  0.64998976  0.70992350  0.25879091     0.12500
H499        H  0.66949339  0.64562547  0.30312480     0.12000
H500        H  0.70006888  0.63521934  0.27130323     0.12200
H501        H  0.64313141  0.67595584  0.32065313     0.15000
H502        H  0.61498166  0.70751742  0.28764108     0.13700
H503        H  0.72080521  0.67873264  0.21232163     0.11400
H504        H  0.69951188  0.60859167  0.23730523     0.13400
C505        C  0.32428069  0.23551978  0.07687977     0.19500
C506        C  0.35736327  0.25641348  0.06439824    -0.18600
C507        C  0.36316283  0.28318939  0.04892051    -0.10900
C508        C  0.33605882  0.29008823  0.04574304     0.21800
C509        C  0.30275620  0.26870740  0.05791260    -0.20200
C510        C  0.29696440  0.24198584  0.07337510    -0.11000
C511        C  0.34115894  0.31903174  0.02997788    -0.15200
C512        C  0.37421616  0.34889112  0.02369907    -0.29100
C513        C  0.32005011  0.20893024  0.09430685    -0.03300
C514        C  0.28736712  0.18034836  0.10204655    -0.39900
H515        H  0.37887649  0.25204597  0.06666037     0.12900
H516        H  0.38882219  0.29818034  0.03943421     0.12500
H517        H  0.28133720  0.27328113  0.05586164     0.12000
H518        H  0.27146885  0.22734583  0.08300480     0.12200
H519        H  0.31660432  0.31678563  0.02477736     0.15000
H520        H  0.39865610  0.35261810  0.03061448     0.13700
H521        H  0.34487841  0.21293008  0.10086440     0.11400
H522        H  0.26227400  0.17450109  0.09466698     0.13400
C523        C  0.31239525  0.33461237  0.42967820     0.19500
C524        C  0.30169941  0.35603421  0.42007267    -0.18600
C525        C  0.27629185  0.34159005  0.40209459    -0.10900
C526        C  0.26078857  0.30516696  0.39356755     0.21800
C527        C  0.27089752  0.28352881  0.40352706    -0.20200
C528        C  0.29615431  0.29790056  0.42154472    -0.11000
C529        C  0.23544344  0.28950673  0.37362408    -0.15200
C530        C  0.21263934  0.29955414  0.36892383    -0.29100
C531        C  0.34096794  0.35151212  0.44780579    -0.03300
C532        C  0.36440963  0.34155528  0.45036921    -0.39900
H533        H  0.31383053  0.38438537  0.42604591     0.12900
H534        H  0.26973383  0.35933091  0.39447807     0.12500
H535        H  0.25916573  0.25534247  0.39733664     0.12000
H536        H  0.30284886  0.28020181  0.42904547     0.12200
H537        H  0.23444950  0.26780655  0.36316006     0.15000
H538        H  0.21105765  0.31850529  0.38077024     0.13700
H539        H  0.34478434  0.37484651  0.45800926     0.11400
H540        H  0.36276156  0.32027890  0.43902707     0.13400
C541        C  0.20697323  0.21667810  0.26420254     0.19500
C542        C  0.23452279  0.21005563  0.26466367    -0.18600
C543        C  0.24105642  0.19389038  0.24556426    -0.10900
C544        C  0.22012648  0.18387171  0.22535545     0.21800
C545        C  0.19228051  0.19011511  0.22486183    -0.20200
C546        C  0.18580249  0.20650385  0.24401701    -0.11000
C547        C  0.22548590  0.16492182  0.20524952    -0.15200
C548        C  0.25803039  0.17010387  0.20032704    -0.29100
C549        C  0.20024081  0.23214770  0.28567852    -0.03300
C550        C  0.18072584  0.24721790  0.28667984    -0.39900
H551        H  0.25088277  0.21703025  0.28004573     0.12900
H552        H  0.26181165  0.18828320  0.24701900     0.12500
H553        H  0.17536262  0.18210103  0.20966252     0.12000
H554        H  0.16361329  0.21007643  0.24305392     0.12200
H555        H  0.20217234  0.14639642  0.19426498     0.15000
H556        H  0.28194525  0.19035131  0.21032184     0.13700
H557        H  0.21176708  0.23047304  0.30150182     0.11400
H558        H  0.16851426  0.24851357  0.27108407     0.13400
C559        C  0.95757105  0.20827779  0.27449317     0.19500
C560        C  0.93326314  0.21742299  0.26811455    -0.18600
C561        C  0.90716826  0.19681055  0.25092603    -0.10900
C562        C  0.90465207  0.16627140  0.23975737     0.21800
C563        C  0.92936204  0.15755884  0.24577343    -0.20200
C564        C  0.95549973  0.17819817  0.26289355    -0.11000
C565        C  0.87728947  0.14328659  0.22148789    -0.15200
C566        C  0.84590071  0.14100543  0.21936627    -0.29100
C567        C  0.98541724  0.23180780  0.29252169    -0.03300
C568        C  0.00678585  0.22313321  0.30237775    -0.39900
H569        H  0.93456622  0.24077593  0.27639641     0.12900
H570        H  0.88959093  0.20539722  0.24625591     0.12500
H571        H  0.92837483  0.13453760  0.23721333     0.12000
H572        H  0.97418260  0.17052537  0.26649783     0.12200
H573        H  0.88243046  0.12632744  0.21001990     0.15000
H574        H  0.83924085  0.15615149  0.23137076     0.13700
H575        H  0.98899986  0.25785226  0.29741896     0.11400
H576        H  0.00417571  0.19762625  0.29751160     0.13400
C577        C  0.00068279  0.60178048  0.89948095     0.19500
C578        C  0.96285019  0.58192951  0.90381390    -0.18600
C579        C  0.94570580  0.55169917  0.91842384    -0.10900
C580        C  0.96621717  0.54094279  0.92936396     0.21800
C581        C  0.00385603  0.56008089  0.92450393    -0.20200
C582        C  0.02102610  0.59033318  0.90988124    -0.11000
C583        C  0.94958344  0.51134590  0.94681868    -0.15200
C584        C  0.92251378  0.50590718  0.96120171    -0.29100
C585        C  0.01824275  0.63516616  0.88496827    -0.03300
C586        C  0.04934146  0.64767380  0.87274826    -0.39900
H587        H  0.94646752  0.58996160  0.89591257     0.12900
H588        H  0.91644985  0.53696729  0.92124187     0.12500
H589        H  0.02033542  0.55245905  0.93275579     0.12000
H590        H  0.05034863  0.60537113  0.90742505     0.12200
H591        H  0.96279952  0.49717935  0.94980725     0.15000
H592        H  0.91208338  0.52298636  0.95950379     0.13700
H593        H  0.00447106  0.64920694  0.88375575     0.11400
H594        H  0.06204024  0.63249572  0.87256377     0.13400
C595        C  0.82211309  0.54579116  0.09693750     0.19500
C596        C  0.82412485  0.51523639  0.09990057    -0.18600
C597        C  0.83732577  0.50277801  0.08216290    -0.10900
C598        C  0.84867464  0.52054887  0.06081822     0.21800
C599        C  0.84641211  0.55090451  0.05777693    -0.20200
C600        C  0.83348977  0.56354366  0.07556508    -0.11000
C601        C  0.86122409  0.50750329  0.04085084    -0.15200
C602        C  0.87439183  0.48623965  0.04242414    -0.29100
C603        C  0.80673408  0.55696382  0.11629581    -0.03300
C604        C  0.80789636  0.58852030  0.11761138    -0.39900
H605        H  0.81513318  0.50064099  0.11605734     0.12900
H606        H  0.83763555  0.47874005  0.08508959     0.12500
H607        H  0.85458049  0.56491482  0.04141955     0.12000
H608        H  0.83185632  0.58665234  0.07220000     0.12200
H609        H  0.85943501  0.51628969  0.02396545     0.15000
H610        H  0.87559287  0.47676212  0.05921325     0.13700
H611        H  0.79390184  0.53797763  0.13049871     0.11400
H612        H  0.82105916  0.60865734  0.10411855     0.13400
C613        C  0.96535333  0.33679925  0.93980044     0.19500
C614        C  0.97673459  0.34911304  0.91709424    -0.18600
C615        C  0.99305542  0.33536726  0.90281170    -0.10900
C616        C  0.99815520  0.30858386  0.91087154     0.21800
C617        C  0.98575417  0.29547264  0.93326290    -0.20200
C618        C  0.96964959  0.30928978  0.94754959    -0.11000
C619        C  0.01496324  0.29270781  0.89624384    -0.15200
C620        C  0.03940526  0.31126773  0.87915659    -0.29100
C621        C  0.94739509  0.35156577  0.95443551    -0.03300
C622        C  0.94412917  0.34880090  0.97767493    -0.39900
H623        H  0.97298868  0.36951111  0.91035169     0.12900
H624        H  0.00094185  0.34525127  0.88536230     0.12500
H625        H  0.98859950  0.27435066  0.93980605     0.12000
H626        H  0.95989738  0.29750337  0.96441290     0.12200
H627        H  0.00801488  0.26540436  0.90027524     0.15000
H628        H  0.04796415  0.33932576  0.87585683     0.13700
H629        H  0.93560136  0.36405443  0.94575052     0.11400
H630        H  0.95605234  0.33663214  0.98649363     0.13400
C631        C  0.82361142  0.21538468  0.10918720     0.19500
C632        C  0.80386716  0.22839366  0.10008542    -0.18600
C633        C  0.81956898  0.25563880  0.08321808    -0.10900
C634        C  0.85573245  0.27080341  0.07534774     0.21800
C635        C  0.87576626  0.25866898  0.08516944    -0.20200
C636        C  0.86009449  0.23149829  0.10186820    -0.11000
C637        C  0.87369266  0.29796885  0.05641563    -0.15200
C638        C  0.85927563  0.31333443  0.04514151    -0.29100
C639        C  0.80571356  0.18508941  0.12620281    -0.03300
C640        C  0.81534630  0.16107540  0.12812327    -0.39900
H641        H  0.77581485  0.21672633  0.10561662     0.12900
H642        H  0.80305135  0.26405460  0.07623554     0.12500
H643        H  0.90377964  0.26999645  0.07968113     0.12000
H644        H  0.87676446  0.22334654  0.10904369     0.12200
H645        H  0.90101041  0.30577757  0.05135994     0.15000
H646        H  0.83335547  0.30864920  0.05067777     0.13700
H647        H  0.78299202  0.18140535  0.13658312     0.11400
H648        H  0.83646461  0.16320716  0.11676625     0.13400
C649        C  0.22564037  0.81427586  0.90893810     0.19500
C650        C  0.26227366  0.82626860  0.90578590    -0.18600
C651        C  0.28737656  0.84446970  0.92374589    -0.10900
C652        C  0.27614789  0.85046826  0.94556195     0.21800
C653        C  0.23934323  0.83820031  0.94872867    -0.20200
C654        C  0.21428631  0.82020929  0.93068039    -0.11000
C655        C  0.30198338  0.87093254  0.96504879    -0.15200
C656        C  0.33657713  0.87983948  0.96536798    -0.29100
C657        C  0.20005492  0.79486076  0.88932991    -0.03300
C658        C  0.16952877  0.79412653  0.88677873    -0.39900
H659        H  0.27166981  0.82203782  0.88919515     0.12900
H660        H  0.31549735  0.85420738  0.92009379     0.12500
H661        H  0.22988637  0.84252902  0.96526561     0.12000
H662        H  0.18604982  0.81050875  0.93398482     0.12200
H663        H  0.29167637  0.87885344  0.97969538     0.15000
H664        H  0.34597476  0.86928940  0.95172167     0.13700
H665        H  0.20737627  0.78172074  0.87605512     0.11400
H666        H  0.16252502  0.80842797  0.89929712     0.13400
C667        C  0.33093359  0.03468183  0.08563442     0.19500
C668        C  0.36608301  0.04963410  0.07622449    -0.18600
C669        C  0.37287405  0.02879908  0.06065036    -0.10900
C670        C  0.34460535  0.99213627  0.05450453     0.21800
C671        C  0.30964240  0.97709814  0.06422843    -0.20200
C672        C  0.30284721  0.99793755  0.07969610    -0.11000
C673        C  0.34975478  0.96870083  0.03774980    -0.15200
C674        C  0.38257148  0.97616124  0.03077680    -0.29100
C675        C  0.32474347  0.05778946  0.10197065    -0.03300
C676        C  0.29163496  0.05183158  0.10582312    -0.39900
H677        H  0.38826100  0.07778457  0.08065548     0.12900
H678        H  0.40008508  0.04190062  0.05329542     0.12500
H679        H  0.28739258  0.94888845  0.05993332     0.12000
H680        H  0.27572225  0.98487371  0.08718094     0.12200
H681        H  0.32505757  0.94321817  0.03170415     0.15000
H682        H  0.40742039  0.99980848  0.03823254     0.13700
H683        H  0.34849268  0.08104793  0.11074571     0.11400
H684        H  0.26785784  0.02983945  0.09645849     0.13400
C685        C  0.54738827  0.88908417  0.93781410     0.19500
C686        C  0.57411358  0.88174039  0.94045152    -0.18600
C687        C  0.58518063  0.86915889  0.92166682    -0.10900
C688        C  0.56978026  0.86371293  0.89967957     0.21800
C689        C  0.54248082  0.87030624  0.89709996    -0.20200
C690        C  0.53135077  0.88290820  0.91594548    -0.11000
C691        C  0.57970397  0.84870010  0.87960366    -0.15200
C692        C  0.61142173  0.85112676  0.87817418    -0.29100
C693        C  0.53612538  0.90144204  0.95862081    -0.03300
C694        C  0.51803695  0.91788424  0.95798616    -0.39900
H695        H  0.58634085  0.88551098  0.95717432     0.12900
H696        H  0.60504871  0.86279735  0.92472731     0.12500
H697        H  0.52955532  0.86545925  0.88048420     0.12000
H698        H  0.50968212  0.88684536  0.91331747     0.12200
H699        H  0.55982781  0.83443390  0.86581893     0.15000
H700        H  0.63224043  0.86647538  0.89126672     0.13700
H701        H  0.54306677  0.89653491  0.97531289     0.11400
H702        H  0.51014316  0.92247245  0.94158645     0.13400
C703        C  0.58526518  0.96887216  0.06700004     0.19500
C704        C  0.60574494  0.95441589  0.07176149    -0.18600
C705        C  0.63083709  0.96919473  0.08986024    -0.10900
C706        C  0.63612421  0.99907442  0.10355346     0.21800
C707        C  0.61506330  0.01299614  0.09918527    -0.20200
C708        C  0.59007791  0.99832509  0.08103779    -0.11000
C709        C  0.66322436  0.01671618  0.12247451    -0.15200
C710        C  0.69234208  0.01462267  0.12412988    -0.29100
C711        C  0.56101940  0.95374059  0.04648044    -0.03300
C712        C  0.53596054  0.96088296  0.04179918    -0.39900
H713        H  0.60254319  0.93167493  0.06126742     0.12900
H714        H  0.64575487  0.95699015  0.09304366     0.12500
H715        H  0.61859061  0.03599206  0.10953635     0.12000
H716        H  0.57556501  0.01095668  0.07785099     0.12200
H717        H  0.66024259  0.03425470  0.13484009     0.15000
H718        H  0.69722181  0.99887246  0.11146921     0.13700
H719        H  0.56388554  0.93544973  0.03479344     0.11400
H720        H  0.53036098  0.97636120  0.05423129     0.13400
C721        C  0.88234534  0.56636247  0.59587810     0.19500
C722        C  0.91950019  0.58089503  0.59143627    -0.18600
C723        C  0.92990808  0.56388184  0.57511663    -0.10900
C724        C  0.90321743  0.53166662  0.56286067     0.21800
C725        C  0.86612648  0.51747954  0.56700677    -0.20200
C726        C  0.85570508  0.53434460  0.58342378    -0.11000
C727        C  0.91255019  0.51220512  0.54539295    -0.15200
C728        C  0.94471645  0.51535506  0.54438999    -0.29100
C729        C  0.87303043  0.58408750  0.61472524    -0.03300
C730        C  0.83900310  0.57526830  0.61991332    -0.39900
H731        H  0.94067305  0.60545343  0.60079438     0.12900
H732        H  0.95879787  0.57630913  0.57207726     0.12500
H733        H  0.84500726  0.49274922  0.55777289     0.12000
H734        H  0.82678922  0.52159936  0.58650231     0.12200
H735        H  0.89115251  0.49311558  0.53331761     0.15000
H736        H  0.96619563  0.53313534  0.55669780     0.13700
H737        H  0.89573438  0.60525117  0.62522819     0.11400
H738        H  0.81630914  0.55684882  0.60854551     0.13400
C739        C  0.02753259  0.33740824  0.39452803     0.19500
C740        C  0.99271736  0.32439577  0.40384641    -0.18600
C741        C  0.98785190  0.34509333  0.42066281    -0.10900
C742        C  0.01776478  0.37979131  0.42849057     0.21800
C743        C  0.05280743  0.39253916  0.41968454    -0.20200
C744        C  0.05772833  0.37177733  0.40277807    -0.11000
C745        C  0.01324837  0.40280134  0.44607671    -0.15200
C746        C  0.98157296  0.40023023  0.44906553    -0.29100
C747        C  0.03032274  0.31421756  0.37609306    -0.03300
C748        C  0.06195840  0.32051698  0.36740303    -0.39900
H749        H  0.96898679  0.29791781  0.39808529     0.12900
H750        H  0.96057877  0.33345597  0.42765428     0.12500
H751        H  0.07638164  0.41898534  0.42560275     0.12000
H752        H  0.08509306  0.38324434  0.39613765     0.12200
H753        H  0.03684013  0.42303781  0.45636565     0.15000
H754        H  0.95848938  0.38174199  0.43793724     0.13700
H755        H  0.00465831  0.28991651  0.37000955     0.11400
H756        H  0.08780488  0.34312673  0.37446676     0.13400
C757        C  0.32442139  0.02654683  0.61022852     0.19500
C758        C  0.32377392  0.03004919  0.58617178    -0.18600
C759        C  0.33952729  0.01714296  0.57065321    -0.10900
C760        C  0.35626893  0.00036808  0.57896395     0.21800
C761        C  0.35787499  0.99787996  0.60295090    -0.20200
C762        C  0.34268517  0.01120284  0.61841158    -0.11000
C763        C  0.37035762  0.98306635  0.56340684    -0.15200
C764        C  0.38349415  0.99402033  0.54181654    -0.29100
C765        C  0.30533176  0.03846168  0.62618104    -0.03300
C766        C  0.29440787  0.02582138  0.64784054    -0.39900
H767        H  0.31017186  0.04197566  0.57930392     0.12900
H768        H  0.33741163  0.01913061  0.55225022     0.12500
H769        H  0.37097081  0.98541732  0.60981494     0.12000
H770        H  0.34543492  0.00929791  0.63672229     0.12200
H771        H  0.37135938  0.96105547  0.57058458     0.15000
H772        H  0.38518411  0.01757585  0.53477159     0.13700
H773        H  0.29760564  0.05581157  0.61924325     0.11400
H774        H  0.29925546  0.00589103  0.65401333     0.13400
C775        C  0.50772898  0.89644335  0.43711754     0.19500
C776        C  0.54058211  0.92037373  0.42520552    -0.18600
C777        C  0.55830046  0.90676936  0.41270109    -0.10900
C778        C  0.54346817  0.86870687  0.41141929     0.21800
C779        C  0.51028119  0.84440479  0.42308644    -0.20200
C780        C  0.49258000  0.85814433  0.43585070    -0.11000
C781        C  0.56398832  0.85657931  0.39746274    -0.15200
C782        C  0.55025210  0.82228599  0.38826426    -0.29100
C783        C  0.49015289  0.91281541  0.45008067    -0.03300
C784        C  0.46512659  0.89589162  0.46713799    -0.39900
H785        H  0.55283235  0.94992892  0.42567937     0.12900
H786        H  0.58365681  0.92617249  0.40375272     0.12500
H787        H  0.49805280  0.81492497  0.42257598     0.12000
H788        H  0.46688037  0.83862202  0.44433650     0.12200
H789        H  0.59204313  0.87842671  0.39315877     0.15000
H790        H  0.52302391  0.79918480  0.39292110     0.13700
H791        H  0.49952397  0.94089044  0.44602779     0.11400
H792        H  0.45658398  0.86862473  0.47240997     0.13400
C793        C  0.54962154  0.00430590  0.57836633     0.19500
C794        C  0.54560727  0.99648172  0.60199589    -0.18600
C795        C  0.57600826  0.01354919  0.61654264    -0.10900
C796        C  0.61159512  0.03827511  0.60762429     0.21800
C797        C  0.61554611  0.04651656  0.58402817    -0.20200
C798        C  0.58503418  0.02971838  0.56951933    -0.11000
C799        C  0.64520280  0.05491182  0.62202766    -0.15200
C800        C  0.64591871  0.04017085  0.64186827    -0.29100
C801        C  0.51637283  0.98463703  0.56355298    -0.03300
C802        C  0.51399378  0.99757367  0.54340310    -0.39900
H803        H  0.51864256  0.97714048  0.60932176     0.12900
H804        H  0.57124828  0.00722296  0.63469964     0.12500
H805        H  0.64253701  0.06540743  0.57662695     0.12000
H806        H  0.58952396  0.03599894  0.55132006     0.12200
H807        H  0.67080890  0.07770223  0.61485820     0.15000
H808        H  0.62095378  0.01550942  0.64806479     0.13700
H809        H  0.49247614  0.95917215  0.56994903     0.11400
H810        H  0.53685023  0.02387329  0.53727154     0.13400
C811        C  0.69447002  0.91517538  0.75345992     0.19500
C812        C  0.68557495  0.90835009  0.72987751    -0.18600
C813        C  0.69833569  0.93751672  0.71484716    -0.10900
C814        C  0.71965610  0.97445076  0.72320770     0.21800
C815        C  0.73045200  0.98132527  0.74650992    -0.20200
C816        C  0.71795217  0.95202572  0.76155245    -0.11000
C817        C  0.72891476  0.00606480  0.70860033    -0.15200
C818        C  0.70744109  0.00191969  0.69098891    -0.29100
C819        C  0.67580000  0.88335182  0.76921554    -0.03300
C820        C  0.68854686  0.88277176  0.78996303    -0.39900
H821        H  0.66792527  0.88020615  0.72312617     0.12900
H822        H  0.69074967  0.93086535  0.69680309     0.12500
H823        H  0.74715721  0.00946951  0.75337938     0.12000
H824        H  0.72515471  0.95838259  0.77965288     0.12200
H825        H  0.75114235  0.03360440  0.71418860     0.15000
H826        H  0.68352464  0.97450490  0.68691680     0.13700
H827        H  0.65014311  0.85878401  0.76319401     0.11400
H828        H  0.71531541  0.90568471  0.79576332     0.13400
C829        C  0.86667010  0.26507140  0.59554679     0.19500
C830        C  0.90093658  0.28339463  0.58440109    -0.18600
C831        C  0.90968709  0.30884136  0.56725994    -0.10900
C832        C  0.88454220  0.31719396  0.56117837     0.21800
C833        C  0.84986173  0.29810335  0.57183359    -0.20200
C834        C  0.84100879  0.27244315  0.58894369    -0.11000
C835        C  0.89415787  0.34604592  0.54409981    -0.15200
C836        C  0.92872695  0.37567015  0.54156163    -0.29100
C837        C  0.85975104  0.24072065  0.61507119    -0.03300
C838        C  0.82602057  0.21341104  0.62218775    -0.39900
H839        H  0.92116307  0.27816012  0.58908223     0.12900
H840        H  0.93621190  0.32193370  0.55883915     0.12500
H841        H  0.82996185  0.30392886  0.56743833     0.12000
H842        H  0.81462846  0.25953562  0.59748990     0.12200
H843        H  0.87233183  0.34382206  0.53433410     0.15000
H844        H  0.95008710  0.37894829  0.55238576     0.13700
H845        H  0.88357420  0.24533752  0.62368105     0.11400
H846        H  0.80237019  0.20624649  0.61217186     0.13400
C847        C  0.90116366  0.20216909  0.73194259     0.19500
C848        C  0.91362627  0.18119945  0.73978877    -0.18600
C849        C  0.94383775  0.19700097  0.75448259    -0.10900
C850        C  0.96234239  0.23434985  0.76197946     0.21800
C851        C  0.94979917  0.25532255  0.75422837    -0.20200
C852        C  0.91938841  0.23943722  0.73961683    -0.11000
C853        C  0.99506936  0.25217837  0.77742151    -0.15200
C854        C  0.00015432  0.23284150  0.79253383    -0.29100
C855        C  0.86969781  0.18425036  0.71551195    -0.03300
C856        C  0.86356793  0.20332066  0.70080328    -0.39900
H857        H  0.90036147  0.15254258  0.73413597     0.12900
H858        H  0.95306818  0.18001227  0.75945044     0.12500
H859        H  0.96339563  0.28412554  0.75971673     0.12000
H860        H  0.91020191  0.25643619  0.73458642     0.12200
H861        H  0.01457782  0.28197418  0.77697865     0.15000
H862        H  0.97933154  0.20350909  0.79412508     0.13700
H863        H  0.85318066  0.15424790  0.71402045     0.11400
H864        H  0.88200843  0.23324225  0.70091516     0.13400
C865        C  0.29862611  0.89346475  0.42983176     0.19500
C866        C  0.30341539  0.91103408  0.40894240    -0.18600
C867        C  0.27475460  0.89701296  0.39326413    -0.10900
C868        C  0.24003591  0.86502135  0.39817454     0.21800
C869        C  0.23505906  0.84737084  0.41912119    -0.20200
C870        C  0.26389372  0.86146668  0.43488559    -0.11000
C871        C  0.20937229  0.84832227  0.38124395    -0.15200
C872        C  0.20728837  0.86783835  0.36456120    -0.29100
C873        C  0.33068201  0.91011700  0.44559642    -0.03300
C874        C  0.33327519  0.89355434  0.46389221    -0.39900
H875        H  0.32983619  0.93562679  0.40448675     0.12900
H876        H  0.28043816  0.91087684  0.37707502     0.12500
H877        H  0.20869171  0.82257104  0.42333537     0.12000
H878        H  0.25866635  0.84734876  0.45091290     0.12200
H879        H  0.18853721  0.81896661  0.38251284     0.15000
H880        H  0.22793982  0.89734835  0.36401310     0.13700
H881        H  0.35408868  0.93767273  0.44145677     0.11400
H882        H  0.31087984  0.86582815  0.46844182     0.13400
C883        C  0.22190439  0.98652799  0.22581570     0.19500
C884        C  0.18615058  0.96223303  0.23435964    -0.18600
C885        C  0.17900094  0.93813402  0.25214211    -0.10900
C886        C  0.20752271  0.93738408  0.26164266     0.21800
C887        C  0.24320105  0.96131265  0.25287225    -0.20200
C888        C  0.25036070  0.98545919  0.23511317    -0.11000
C889        C  0.20169058  0.91362294  0.28140532    -0.15200
C890        C  0.16890119  0.88307406  0.28723225    -0.29100
C891        C  0.22804224  0.01201750  0.20709239    -0.03300
C892        C  0.26080458  0.04308843  0.20201255    -0.39900
H893        H  0.16367942  0.96237623  0.22753849     0.12900
H894        H  0.15126393  0.92095019  0.25871209     0.12500
H895        H  0.26570785  0.96132943  0.25979992     0.12000
H896        H  0.27814338  0.00286595  0.22866319     0.12200
H897        H  0.22579946  0.92127056  0.29098126     0.15000
H898        H  0.14547242  0.87367173  0.27636781     0.13700
H899        H  0.20413577  0.00551141  0.19760408     0.11400
H900        H  0.28491857  0.05107596  0.21175425     0.13400
C901        C  0.00415486  0.57773529  0.42183917     0.19500
C902        C  0.99231275  0.57287280  0.39895555    -0.18600
C903        C  0.00819670  0.60285960  0.38425208    -0.10900
C904        C  0.03626705  0.63858154  0.39223164     0.21800
C905        C  0.04759655  0.64355174  0.41526814    -0.20200
C906        C  0.03186522  0.61350673  0.42993797    -0.11000
C907        C  0.05152715  0.67149728  0.37764680    -0.15200
C908        C  0.05164759  0.66932672  0.35439876    -0.29100
C909        C  0.98663563  0.54526946  0.43701406    -0.03300
C910        C  0.00505921  0.54274301  0.45401857    -0.39900
H911        H  0.97064720  0.54571182  0.39241968     0.12900
H912        H  0.99750674  0.59805391  0.36692404     0.12500
H913        H  0.06852461  0.67090141  0.42200692     0.12000
H914        H  0.04082768  0.61854362  0.44771410     0.12200
H915        H  0.06061306  0.69782075  0.38626244     0.15000
H916        H  0.04241260  0.64322912  0.34551024     0.13700
H917        H  0.95866180  0.52226250  0.43340090     0.11400
H918        H  0.03376579  0.56459924  0.45661303     0.13400
C919        C  0.95961889  0.69952241  0.26539109     0.19500
C920        C  0.95666868  0.72059230  0.24909759    -0.18600
C921        C  0.92610083  0.70445956  0.23464409    -0.10900
C922        C  0.89782166  0.66653302  0.23606535     0.21800
C923        C  0.90125924  0.64544282  0.25208549    -0.20200
C924        C  0.93164775  0.66155682  0.26651913    -0.11000
C925        C  0.86449211  0.64737510  0.22125988    -0.15200
C926        C  0.85499666  0.66443785  0.20723634    -0.29100
C927        C  0.99298607  0.71712446  0.27999930    -0.03300
C928        C  0.99286961  0.70368998  0.30056329    -0.39900
H929        H  0.97813576  0.74973321  0.24755696     0.12900
H930        H  0.92525041  0.72183601  0.22234246     0.12500
H931        H  0.88031513  0.61612120  0.25339909     0.12000
H932        H  0.93342652  0.64382043  0.27806401     0.12200
H933        H  0.84624067  0.61745880  0.22242435     0.15000
H934        H  0.87210814  0.69421575  0.20571747     0.13700
H935        H  0.01831175  0.74089265  0.27329045     0.11400
H936        H  0.96732190  0.68032903  0.30731024     0.13400
loop_ 
_geom_bond_atom_site_label_1 
_geom_bond_atom_site_label_2 
_geom_bond_distance 
_geom_bond_site_symmetry_2 
_ccdc_geom_bond_type 
C1            C2   1.395       .  A
C1            C6   1.408       .  A
C1          C928   1.484   1_455  S
C2            C3   1.392       .  A
C2            H7   1.085       .  S
C3            C4   1.403       .  A
C3          C908   1.474       .  S
C4            C5   1.417       .  A
C4            H8   1.082       .  S
C5            C6   1.419       .  A
C5           C14   1.505       .  S
C6            H9   1.080       .  S
C10          C11   1.406       .  A
C10          C15   1.404       .  A
C10         C890   1.495       .  S
C11          C12   1.405       .  A
C11          H16   1.081       .  S
C12          C13   1.410       .  A
C12         C872   1.495       .  S
C13          C14   1.414       .  A
C13          H17   1.078       .  S
C14          C15   1.412       .  A
C15          H18   1.082       .  S
C19          C20   1.402       .  A
C19          C24   1.405       .  A
C19         C838   1.488       .  S
C20          C21   1.410       .  A
C20          H25   1.083       .  S
C21          C22   1.415       .  A
C21          C30   1.501       .  S
C22          C23   1.411       .  A
C22          H26   1.081       .  S
C23          C24   1.402       .  A
C23         C856   1.493       .  S
C24          H27   1.083       .  S
C28          C29   1.408       .  A
C28          C33   1.398       .  A
C28         C800   1.489       .  S
C29          C30   1.417       .  A
C29          H34   1.081       .  S
C30          C31   1.414       .  A
C31          C32   1.408       .  A
C31          H35   1.080       .  S
C32          C33   1.400       .  A
C32         C818   1.490       .  S
C33          H36   1.084   1_545  S
O37         Ni45   1.919       .  S
O37          C47   1.280       .  A
O38         Ni45   1.917       .  S
O38          C48   1.282       .  A
O39         Ni45   1.928       .  S
O39          C49   1.282       .  A
O40         Ni45   1.927       .  S
O40          C50   1.283       .  A
O41         Ni46   1.919       .  S
O41          C50   1.281       .  A
O42         Ni46   1.918       .  S
O42          C49   1.282       .  A
O43         Ni46   1.926       .  S
O43          C48   1.282       .  A
O44         Ni46   1.926       .  S
O44          C47   1.284       .  A
Ni45        Ni46   2.387       .  S
C47         C784   1.482       .  S
C48         C764   1.482       .  S
C49         C874   1.485       .  S
C50         C802   1.481       .  S
O51         Ni59   1.911       .  S
O51          C61   1.279       .  A
O52         Ni59   1.913       .  S
O52          C62   1.281       .  A
O53         Ni59   1.933       .  S
O53          C63   1.285       .  A
O54         Ni59   1.936       .  S
O54          C64   1.285       .  A
O55         Ni60   1.905       .  S
O55          C64   1.278       .  A
O56         Ni60   1.903   1_455  S
O56          C63   1.277   1_455  A
O57         Ni60   1.927       .  S
O57          C62   1.283       .  A
O58         Ni60   1.928   1_455  S
O58          C61   1.284   1_455  A
Ni59        Ni60   2.389       .  S
C61         C746   1.476       .  S
C62         C728   1.480       .  S
C63         C910   1.474   1_655  S
C64         C836   1.476       .  S
C65          C66   1.403       .  A
C65          C70   1.400       .  A
C65         C694   1.482       .  S
C66          C67   1.405   1_556  A
C66          H71   1.081       .  S
C67          C68   1.401       .  A
C67         C712   1.485       .  S
C68          C69   1.409   1_554  A
C68          H72   1.083       .  S
C69          C70   1.408       .  A
C69          C76   1.493       .  S
C70          H73   1.083       .  S
C74          C75   1.400       .  A
C74          C79   1.406   1_554  A
C74         C674   1.487       .  S
C75          C76   1.407   1_554  A
C75          H80   1.082       .  S
C76          C77   1.408       .  A
C77          C78   1.403       .  A
C77          H81   1.082       .  S
C78          C79   1.407       .  A
C78         C656   1.489       .  S
C79          H82   1.077       .  S
C83          C84   1.398   1_556  A
C83          C88   1.411       .  A
C83         C622   1.489       .  S
C84          C85   1.401       .  A
C84          H89   1.084       .  S
C85          C86   1.404       .  A
C85         C638   1.494       .  S
C86          C87   1.419       .  A
C86          H90   1.081       .  S
C87          C88   1.423   1_554  A
C87          C96   1.515       .  S
C88          H91   1.080       .  S
C92          C93   1.402       .  A
C92          C97   1.408       .  A
C92         C602   1.499       .  S
C93          C94   1.399   1_554  A
C93          H98   1.082       .  S
C94          C95   1.409       .  A
C94         C584   1.488       .  S
C95          C96   1.417   1_556  A
C95          H99   1.079       .  S
C96          C97   1.421       .  A
C97         H100   1.080       .  S
C101        C102   1.409       .  A
C101        C106   1.404       .  A
C101        C748   1.491       .  S
C102        C103   1.405       .  A
C102        H107   1.081       .  S
C103        C104   1.401       .  A
C103        C568   1.484       .  S
C104        C105   1.407       .  A
C104        H108   1.082       .  S
C105        C106   1.410       .  A
C105        C112   1.499       .  S
C106        H109   1.082       .  S
C110        C111   1.403       .  A
C110        C115   1.407       .  A
C110        C550   1.491       .  S
C111        C112   1.411       .  A
C111        H116   1.082       .  S
C112        C113   1.408       .  A
C113        C114   1.401       .  A
C113        H117   1.083       .  S
C114        C115   1.406       .  A
C114        C530   1.486       .  S
C115        H118   1.081       .  S
O119       Ni127   1.925       .  S
O119        C129   1.282       .  A
O120       Ni127   1.921       .  S
O120        C130   1.281       .  A
O121       Ni127   1.921       .  S
O121        C131   1.282       .  A
O122       Ni127   1.922       .  S
O122        C132   1.282       .  A
O123       Ni128   1.930       .  S
O123        C132   1.284       .  A
O124       Ni128   1.926       .  S
O124        C131   1.282       .  A
O125       Ni128   1.915       .  S
O125        C130   1.281       .  A
O126       Ni128   1.916       .  S
O126        C129   1.280       .  A
Ni127      Ni128   2.388       .  S
C129        C548   1.477       .  S
C130        C676   1.475       .  S
C131        C892   1.482       .  S
C132        C514   1.485       .  S
C133        C134   1.401       .  A
C133        C138   1.402       .  A
C133        C494   1.492       .  S
C134        C135   1.416       .  A
C134        H139   1.081       .  S
C135        C136   1.419       .  A
C135        C144   1.515       .  S
C136        C137   1.413       .  A
C136        H140   1.081       .  S
C137        C138   1.407       .  A
C137        C476   1.502       .  S
C138        H141   1.078       .  S
C142        C143   1.412       .  A
C142        C147   1.403       .  A
C142        C782   1.496       .  S
C143        C144   1.422       .  A
C143        H148   1.081       .  S
C144        C145   1.420       .  A
C145        C146   1.402       .  A
C145        H149   1.079       .  S
C146        C147   1.392       .  A
C146        C458   1.486       .  S
C147        H150   1.083       .  S
O151       Ni159   1.919       .  S
O151        C161   1.280       .  A
O152       Ni159   1.920       .  S
O152        C162   1.282       .  A
O153       Ni159   1.928       .  S
O153        C163   1.283       .  A
O154       Ni159   1.933       .  S
O154        C164   1.284       .  A
O155       Ni160   1.915       .  S
O155        C164   1.281       .  A
O156       Ni160   1.918       .  S
O156        C163   1.281       .  A
O157       Ni160   1.925       .  S
O157        C162   1.282       .  A
O158       Ni160   1.926       .  S
O158        C161   1.284       .  A
Ni159      Ni160   2.387       .  S
C161        C926   1.481       .  S
C162        C442   1.483       .  S
C163        C496   1.480       .  S
C164        C604   1.486       .  S
O165       Ni173   1.914       .  S
O165        C175   1.280       .  A
O166       Ni173   1.914       .  S
O166        C176   1.279       .  A
O167       Ni173   1.924       .  S
O167        C177   1.282       .  A
O168       Ni173   1.925       .  S
O168        C178   1.284       .  A
O169       Ni174   1.906       .  S
O169        C178   1.278       .  A
O170       Ni174   1.904       .  S
O170        C177   1.279       .  A
O171       Ni174   1.932       .  S
O171        C176   1.285       .  A
O172       Ni174   1.932       .  S
O172        C175   1.284       .  A
Ni173      Ni174   2.389       .  S
C175        C640   1.479       .  S
C176        C460   1.481   1_545  S
C177        C710   1.474       .  S
C178        C566   1.473       .  S
C179        C180   1.409       .  A
C179        C184   1.412       .  A
C179        C422   1.502       .  S
C180        C181   1.413       .  A
C180        H185   1.082       .  S
C181        C182   1.412   1_556  A
C181        C190   1.510   1_556  S
C182        C183   1.408       .  A
C182        H186   1.081       .  S
C183        C184   1.411   1_554  A
C183        C512   1.500       .  S
C184        H187   1.080       .  S
C188        C189   1.410       .  A
C188        C193   1.400   1_556  A
C188        C406   1.492       .  S
C189        C190   1.419   1_556  A
C189        H194   1.081       .  S
C190        C191   1.419       .  A
C191        C192   1.407       .  A
C191        H195   1.081       .  S
C192        C193   1.398       .  A
C192        C440   1.489       .  S
C193        H196   1.084       .  S
C197        C198   1.406       .  A
C197        C202   1.404       .  A
C197        C730   1.492       .  S
C198        C199   1.413       .  A
C198        H203   1.082       .  S
C199        C200   1.411       .  A
C199        C210   1.502       .  S
C200        C201   1.404       .  A
C200        H204   1.082       .  S
C201        C202   1.404       .  A
C201        C386   1.493       .  S
C202        H205   1.075       .  S
C206        C207   1.403       .  A
C206        C211   1.402       .  A
C206        C368   1.489       .  S
C207        C208   1.400       .  A
C207        H212   1.082       .  S
C208        C209   1.410       .  A
C208        C350   1.489       .  S
C209        C210   1.413       .  A
C209        H213   1.080       .  S
C210        C211   1.414       .  A
C211        H214   1.082       .  S
O215       Ni223   1.913       .  S
O215        C225   1.280       .  A
O216       Ni223   1.915       .  S
O216        C226   1.281       .  A
O217       Ni223   1.916       .  S
O217        C227   1.282       .  A
O218       Ni223   1.919       .  S
O218        C228   1.280       .  A
O219       Ni224   1.931       .  S
O219        C228   1.285       .  A
O220       Ni224   1.928       .  S
O220        C227   1.282       .  A
O221       Ni224   1.914       .  S
O221        C226   1.280       .  A
O222       Ni224   1.920       .  S
O222        C225   1.282       .  A
Ni223      Ni224   2.389       .  S
C225        C370   1.473       .  S
C226        C692   1.471       .  S
C227        C820   1.481       .  S
C228        C404   1.484       .  S
C229        C230   1.401       .  A
C229        C234   1.412       .  A
C229        C766   1.491       .  S
C230        C231   1.401       .  A
C230        H235   1.084   1_545  S
C231        C232   1.401       .  A
C231        C332   1.490   1_545  S
C232        C233   1.416       .  A
C232        H236   1.080       .  S
C233        C234   1.420       .  A
C233        C240   1.513       .  S
C234        H237   1.079       .  S
C238        C239   1.405       .  A
C238        C243   1.406       .  A
C238        C314   1.502       .  S
C239        C240   1.418       .  A
C239        H244   1.080       .  S
C240        C241   1.416       .  A
C241        C242   1.410       .  A
C241        H245   1.080       .  S
C242        C243   1.406       .  A
C242        C298   1.493       .  S
C243        H246   1.082       .  S
O247       Ni255   1.952       .  S
O247        C257   1.288       .  A
O248       Ni255   1.949       .  S
O248        C258   1.288       .  A
O249       Ni255   1.910       .  S
O249        C259   1.278       .  A
O250       Ni255   1.911       .  S
O250        C260   1.279       .  A
O251       Ni256   1.951       .  S
O251        C260   1.287       .  A
O252       Ni256   1.950       .  S
O252        C259   1.288       .  A
O253       Ni256   1.908       .  S
O253        C258   1.278       .  A
O254       Ni256   1.911       .  S
O254        C257   1.279       .  A
Ni255      Ni256   2.385       .  S
C257        C424   1.489       .  S
C258        C854   1.486       .  S
C259        C620   1.488       .  S
C260        C316   1.489       .  S
O261       Ni269   1.914       .  S
O261        C271   1.279       .  A
O262       Ni269   1.906       .  S
O262        C272   1.280       .  A
O263       Ni269   1.929       .  S
O263        C273   1.284       .  A
O264       Ni269   1.929       .  S
O264        C274   1.283       .  A
O265       Ni270   1.915       .  S
O265        C274   1.280       .  A
O266       Ni270   1.915       .  S
O266        C273   1.280       .  A
O267       Ni270   1.923       .  S
O267        C272   1.281       .  A
O268       Ni270   1.920       .  S
O268        C271   1.283       .  A
Ni269      Ni270   2.389       .  S
C271        C658   1.475       .  S
C272        C388   1.475       .  S
C273        C586   1.480       .  S
C274        C334   1.477       .  S
O275       Ni283   1.926       .  S
O275        C285   1.282       .  A
O276       Ni283   1.926       .  S
O276        C286   1.283       .  A
O277       Ni283   1.917       .  S
O277        C287   1.280       .  A
O278       Ni283   1.915       .  S
O278        C288   1.280       .  A
O279       Ni284   1.920       .  S
O279        C288   1.282       .  A
O280       Ni284   1.924       .  S
O280        C287   1.283       .  A
O281       Ni284   1.925       .  S
O281        C286   1.282       .  A
O282       Ni284   1.926       .  S
O282        C285   1.283       .  A
Ni283      Ni284   2.388       .  S
C285        C296   1.487       .  S
C286        C478   1.485       .  S
C287        C352   1.479       .  S
C288        C532   1.474       .  S
C289        C290   1.406       .  A
C289        C294   1.409       .  A
C289        C297   1.499       .  S
C290        C291   1.405       .  A
C290        H299   1.085       .  S
C291        C292   1.411       .  A
C291        H300   1.079       .  S
C292        C293   1.404       .  A
C292        C295   1.498       .  S
C293        C294   1.399       .  A
C293        H301   1.086       .  S
C294        H302   1.080       .  S
C295        H303   1.087       .  S
C295        C296   1.350       .  D
C296        H304   1.083       .  S
C297        H305   1.086       .  S
C297        C298   1.352       .  D
C298        H306   1.084       .  S
C307        C308   1.407       .  A
C307        C312   1.409       .  A
C307        C315   1.504       .  S
C308        C309   1.409       .  A
C308        H317   1.084       .  S
C309        C310   1.411       .  A
C309        H318   1.081       .  S
C310        C311   1.405       .  A
C310        C313   1.501       .  S
C311        C312   1.400       .  A
C311        H319   1.084       .  S
C312        H320   1.082       .  S
C313        H321   1.086       .  S
C313        C314   1.353       .  D
C314        H322   1.085       .  S
C315        H323   1.086       .  S
C315        C316   1.350       .  D
C316        H324   1.085       .  S
C325        C326   1.406       .  A
C325        C330   1.406       .  A
C325        C333   1.491       .  S
C326        C327   1.405       .  A
C326        H335   1.084       .  S
C327        C328   1.410       .  A
C327        H336   1.081       .  S
C328        C329   1.402       .  A
C328        C331   1.489       .  S
C329        C330   1.394       .  A
C329        H337   1.084       .  S
C330        H338   1.081       .  S
C331        H339   1.086       .  S
C331        C332   1.348       .  D
C332        H340   1.084       .  S
C333        H341   1.087       .  S
C333        C334   1.348       .  D
C334        H342   1.086       .  S
C343        C344   1.402       .  A
C343        C348   1.407       .  A
C343        C351   1.488       .  S
C344        C345   1.399       .  A
C344        H353   1.085       .  S
C345        C346   1.410       .  A
C345        H354   1.081       .  S
C346        C347   1.404       .  A
C346        C349   1.492       .  S
C347        C348   1.400       .  A
C347        H355   1.084       .  S
C348        H356   1.082       .  S
C349        H357   1.085       .  S
C349        C350   1.347       .  D
C350        H358   1.084       .  S
C351        H359   1.089       .  S
C351        C352   1.346       .  D
C352        H360   1.087       .  S
C361        C362   1.404       .  A
C361        C366   1.406       .  A
C361        C369   1.486       .  S
C362        C363   1.402       .  A
C362        H371   1.084       .  S
C363        C364   1.409       .  A
C363        H372   1.080       .  S
C364        C365   1.404       .  A
C364        C367   1.489       .  S
C365        C366   1.395       .  A
C365        H373   1.083       .  S
C366        H374   1.082       .  S
C367        H375   1.086       .  S
C367        C368   1.350       .  D
C368        H376   1.083       .  S
C369        H377   1.087       .  S
C369        C370   1.346       .  D
C370        H378   1.085       .  S
C379        C380   1.402       .  A
C379        C384   1.406       .  A
C379        C387   1.481       .  S
C380        C381   1.395       .  A
C380        H389   1.084       .  S
C381        C382   1.406       .  A
C381        H390   1.081       .  S
C382        C383   1.405       .  A
C382        C385   1.485       .  S
C383        C384   1.399       .  A
C383        H391   1.083       .  S
C384        H392   1.082       .  S
C385        H393   1.081       .  S
C385        C386   1.351       .  D
C386        H394   1.084       .  S
C387        H395   1.087       .  S
C387        C388   1.346   1_655  D
C388        H396   1.085       .  S
C397        C398   1.405       .  A
C397        C402   1.408       .  A
C397        C405   1.495       .  S
C398        C399   1.405       .  A
C398        H407   1.083       .  S
C399        C400   1.410       .  A
C399        H408   1.081       .  S
C400        C401   1.403       .  A
C400        C403   1.494       .  S
C401        C402   1.399       .  A
C401        H409   1.083       .  S
C402        H410   1.082       .  S
C403        H411   1.087       .  S
C403        C404   1.347       .  D
C404        H412   1.086       .  S
C405        H413   1.085       .  S
C405        C406   1.349       .  D
C406        H414   1.085       .  S
C415        C416   1.408       .  A
C415        C420   1.409       .  A
C415        C423   1.505       .  S
C416        C417   1.409       .  A
C416        H425   1.083       .  S
C417        C418   1.412       .  A
C417        H426   1.080       .  S
C418        C419   1.406       .  A
C418        C421   1.503       .  S
C419        C420   1.400       .  A
C419        H427   1.084       .  S
C420        H428   1.081       .  S
C421        H429   1.085       .  S
C421        C422   1.354       .  D
C422        H430   1.083       .  S
C423        H431   1.085       .  S
C423        C424   1.351       .  D
C424        H432   1.084       .  S
C433        C434   1.404       .  A
C433        C438   1.409       .  A
C433        C441   1.492       .  S
C434        C435   1.399       .  A
C434        H443   1.085       .  S
C435        C436   1.408       .  A
C435        H444   1.080       .  S
C436        C437   1.405       .  A
C436        C439   1.494       .  S
C437        C438   1.404       .  A
C437        H445   1.084       .  S
C438        H446   1.081       .  S
C439        H447   1.087       .  S
C439        C440   1.349       .  D
C440        H448   1.086       .  S
C441        H449   1.088       .  S
C441        C442   1.348       .  D
C442        H450   1.086       .  S
C451        C452   1.402       .  A
C451        C456   1.410       .  A
C451        C459   1.494       .  S
C452        C453   1.398       .  A
C452        H461   1.084       .  S
C453        C454   1.411       .  A
C453        H462   1.079       .  S
C454        C455   1.404       .  A
C454        C457   1.496       .  S
C455        C456   1.403       .  A
C455        H463   1.085       .  S
C456        H464   1.079       .  S
C457        H465   1.088       .  S
C457        C458   1.347       .  D
C458        H466   1.084       .  S
C459        H467   1.087   1_565  S
C459        C460   1.346       .  D
C460        H468   1.084       .  S
C469        C470   1.407       .  A
C469        C474   1.408       .  A
C469        C477   1.497       .  S
C470        C471   1.405       .  A
C470        H479   1.085       .  S
C471        C472   1.408       .  A
C471        H480   1.081       .  S
C472        C473   1.406       .  A
C472        C475   1.496       .  S
C473        C474   1.400       .  A
C473        H481   1.086       .  S
C474        H482   1.080       .  S
C475        H483   1.084       .  S
C475        C476   1.356       .  D
C476        H484   1.084       .  S
C477        H485   1.088       .  S
C477        C478   1.351       .  D
C478        H486   1.084       .  S
C487        C488   1.405       .  A
C487        C492   1.407       .  A
C487        C495   1.492       .  S
C488        C489   1.403       .  A
C488        H497   1.084       .  S
C489        C490   1.409       .  A
C489        H498   1.080       .  S
C490        C491   1.404       .  A
C490        C493   1.492       .  S
C491        C492   1.397       .  A
C491        H499   1.084       .  S
C492        H500   1.080       .  S
C493        H501   1.085       .  S
C493        C494   1.351       .  D
C494        H502   1.083       .  S
C495        H503   1.088       .  S
C495        C496   1.348       .  D
C496        H504   1.086       .  S
C505        C506   1.406       .  A
C505        C510   1.408       .  A
C505        C513   1.497       .  S
C506        C507   1.404       .  A
C506        H515   1.083       .  S
C507        C508   1.409       .  A
C507        H516   1.082       .  S
C508        C509   1.405       .  A
C508        C511   1.499       .  S
C509        C510   1.402       .  A
C509        H517   1.083       .  S
C510        H518   1.080       .  S
C511        H519   1.084       .  S
C511        C512   1.353       .  D
C512        H520   1.084       .  S
C513        H521   1.087       .  S
C513        C514   1.350       .  D
C514        H522   1.085       .  S
C523        C524   1.403       .  A
C523        C528   1.407       .  A
C523        C531   1.485       .  S
C524        C525   1.399       .  A
C524        H533   1.084       .  S
C525        C526   1.408       .  A
C525        H534   1.082       .  S
C526        C527   1.402       .  A
C526        C529   1.484       .  S
C527        C528   1.397       .  A
C527        H535   1.084       .  S
C528        H536   1.081       .  S
C529        H537   1.085       .  S
C529        C530   1.345       .  D
C530        H538   1.085       .  S
C531        H539   1.088       .  S
C531        C532   1.345       .  D
C532        H540   1.086       .  S
C541        C542   1.403       .  A
C541        C546   1.410       .  A
C541        C549   1.491       .  S
C542        C543   1.396       .  A
C542        H551   1.084       .  S
C543        C544   1.407       .  A
C543        H552   1.081       .  S
C544        C545   1.404       .  A
C544        C547   1.490       .  S
C545        C546   1.403       .  A
C545        H553   1.083       .  S
C546        H554   1.080       .  S
C547        H555   1.086       .  S
C547        C548   1.347       .  D
C548        H556   1.085       .  S
C549        H557   1.085       .  S
C549        C550   1.348       .  D
C550        H558   1.084       .  S
C559        C560   1.404       .  A
C559        C564   1.410       .  A
C559        C567   1.491       .  S
C560        C561   1.398       .  A
C560        H569   1.083       .  S
C561        C562   1.408       .  A
C561        H570   1.081       .  S
C562        C563   1.401       .  A
C562        C565   1.487       .  S
C563        C564   1.397       .  A
C563        H571   1.083       .  S
C564        H572   1.080       .  S
C565        H573   1.088       .  S
C565        C566   1.343       .  D
C566        H574   1.085       .  S
C567        H575   1.086       .  S
C567        C568   1.347   1_655  D
C568        H576   1.082       .  S
C577        C578   1.403   1_455  A
C577        C582   1.409       .  A
C577        C585   1.491       .  S
C578        C579   1.400       .  A
C578        H587   1.085       .  S
C579        C580   1.408       .  A
C579        H588   1.082       .  S
C580        C581   1.403   1_655  A
C580        C583   1.491       .  S
C581        C582   1.401       .  A
C581        H589   1.085       .  S
C582        H590   1.081       .  S
C583        H591   1.086       .  S
C583        C584   1.347       .  D
C584        H592   1.086       .  S
C585        H593   1.087       .  S
C585        C586   1.346       .  D
C586        H594   1.085       .  S
C595        C596   1.407       .  A
C595        C600   1.408       .  A
C595        C603   1.495       .  S
C596        C597   1.402       .  A
C596        H605   1.085       .  S
C597        C598   1.406       .  A
C597        H606   1.080       .  S
C598        C599   1.406       .  A
C598        C601   1.493       .  S
C599        C600   1.401       .  A
C599        H607   1.085       .  S
C600        H608   1.080       .  S
C601        H609   1.084       .  S
C601        C602   1.354       .  D
C602        H610   1.085       .  S
C603        H611   1.087       .  S
C603        C604   1.353       .  D
C604        H612   1.083       .  S
C613        C614   1.406       .  A
C613        C618   1.412       .  A
C613        C621   1.502       .  S
C614        C615   1.406       .  A
C614        H623   1.084       .  S
C615        C616   1.411       .  A
C615        H624   1.081   1_655  S
C616        C617   1.402       .  A
C616        C619   1.498   1_655  S
C617        C618   1.401       .  A
C617        H625   1.085       .  S
C618        H626   1.080       .  S
C619        H627   1.087       .  S
C619        C620   1.346       .  D
C620        H628   1.086       .  S
C621        H629   1.087       .  S
C621        C622   1.349       .  D
C622        H630   1.084       .  S
C631        C632   1.405       .  A
C631        C636   1.406       .  A
C631        C639   1.493       .  S
C632        C633   1.405       .  A
C632        H641   1.084       .  S
C633        C634   1.410       .  A
C633        H642   1.079       .  S
C634        C635   1.405       .  A
C634        C637   1.493       .  S
C635        C636   1.396       .  A
C635        H643   1.085       .  S
C636        H644   1.081       .  S
C637        H645   1.087       .  S
C637        C638   1.352       .  D
C638        H646   1.084       .  S
C639        H647   1.088       .  S
C639        C640   1.348       .  D
C640        H648   1.086       .  S
C649        C650   1.401       .  A
C649        C654   1.407       .  A
C649        C657   1.484       .  S
C650        C651   1.396       .  A
C650        H659   1.083       .  S
C651        C652   1.409       .  A
C651        H660   1.080       .  S
C652        C653   1.405       .  A
C652        C655   1.489       .  S
C653        C654   1.398       .  A
C653        H661   1.083       .  S
C654        H662   1.081       .  S
C655        H663   1.084       .  S
C655        C656   1.349       .  D
C656        H664   1.084       .  S
C657        H665   1.088       .  S
C657        C658   1.344       .  D
C658        H666   1.086       .  S
C667        C668   1.403       .  A
C667        C672   1.407   1_545  A
C667        C675   1.486       .  S
C668        C669   1.399       .  A
C668        H677   1.084       .  S
C669        C670   1.409   1_545  A
C669        H678   1.081       .  S
C670        C671   1.403       .  A
C670        C673   1.487       .  S
C671        C672   1.396       .  A
C671        H679   1.084       .  S
C672        H680   1.081       .  S
C673        H681   1.085       .  S
C673        C674   1.347       .  D
C674        H682   1.084       .  S
C675        H683   1.087       .  S
C675        C676   1.347       .  D
C676        H684   1.085       .  S
C685        C686   1.402       .  A
C685        C690   1.408       .  A
C685        C693   1.483       .  S
C686        C687   1.394       .  A
C686        H695   1.082       .  S
C687        C688   1.407       .  A
C687        H696   1.081       .  S
C688        C689   1.403       .  A
C688        C691   1.484       .  S
C689        C690   1.399       .  A
C689        H697   1.083       .  S
C690        H698   1.080       .  S
C691        H699   1.086       .  S
C691        C692   1.345       .  D
C692        H700   1.084       .  S
C693        H701   1.086       .  S
C693        C694   1.346       .  D
C694        H702   1.084       .  S
C703        C704   1.404       .  A
C703        C708   1.408       .  A
C703        C711   1.486       .  S
C704        C705   1.396       .  A
C704        H713   1.085       .  S
C705        C706   1.405       .  A
C705        H714   1.080       .  S
C706        C707   1.403   1_565  A
C706        C709   1.482   1_565  S
C707        C708   1.396   1_545  A
C707        H715   1.084       .  S
C708        H716   1.080   1_565  S
C709        H717   1.087       .  S
C709        C710   1.347       .  D
C710        H718   1.084   1_545  S
C711        H719   1.086       .  S
C711        C712   1.347       .  D
C712        H720   1.084       .  S
C721        C722   1.406       .  A
C721        C726   1.407       .  A
C721        C729   1.491       .  S
C722        C723   1.399       .  A
C722        H731   1.084       .  S
C723        C724   1.406       .  A
C723        H732   1.081       .  S
C724        C725   1.404       .  A
C724        C727   1.489       .  S
C725        C726   1.399       .  A
C725        H733   1.083       .  S
C726        H734   1.080       .  S
C727        H735   1.087       .  S
C727        C728   1.349       .  D
C728        H736   1.085       .  S
C729        H737   1.085       .  S
C729        C730   1.352       .  D
C730        H738   1.083       .  S
C739        C740   1.403   1_455  A
C739        C744   1.411       .  A
C739        C747   1.492       .  S
C740        C741   1.395       .  A
C740        H749   1.084       .  S
C741        C742   1.407   1_655  A
C741        H750   1.082       .  S
C742        C743   1.404       .  A
C742        C745   1.489       .  S
C743        C744   1.402       .  A
C743        H751   1.083       .  S
C744        H752   1.080       .  S
C745        H753   1.086       .  S
C745        C746   1.346   1_455  D
C746        H754   1.085       .  S
C747        H755   1.085       .  S
C747        C748   1.348       .  D
C748        H756   1.083       .  S
C757        C758   1.407       .  A
C757        C762   1.410       .  A
C757        C765   1.498       .  S
C758        C759   1.404       .  A
C758        H767   1.085       .  S
C759        C760   1.407       .  A
C759        H768   1.081       .  S
C760        C761   1.402   1_545  A
C760        C763   1.487   1_545  S
C761        C762   1.397   1_565  A
C761        H769   1.085       .  S
C762        H770   1.080       .  S
C763        H771   1.088       .  S
C763        C764   1.347       .  D
C764        H772   1.086   1_565  S
C765        H773   1.086       .  S
C765        C766   1.350       .  D
C766        H774   1.084       .  S
C775        C776   1.401       .  A
C775        C780   1.412       .  A
C775        C783   1.492       .  S
C776        C777   1.395       .  A
C776        H785   1.085       .  S
C777        C778   1.405       .  A
C777        H786   1.083       .  S
C778        C779   1.406       .  A
C778        C781   1.489       .  S
C779        C780   1.406       .  A
C779        H787   1.082       .  S
C780        H788   1.080       .  S
C781        H789   1.086       .  S
C781        C782   1.354       .  D
C782        H790   1.084       .  S
C783        H791   1.087       .  S
C783        C784   1.347       .  D
C784        H792   1.084       .  S
C793        C794   1.403   1_545  A
C793        C798   1.409       .  A
C793        C801   1.492   1_545  S
C794        C795   1.399   1_565  A
C794        H803   1.085       .  S
C795        C796   1.410       .  A
C795        H804   1.080       .  S
C796        C797   1.405       .  A
C796        C799   1.496       .  S
C797        C798   1.401       .  A
C797        H805   1.085       .  S
C798        H806   1.082       .  S
C799        H807   1.087       .  S
C799        C800   1.348       .  D
C800        H808   1.085       .  S
C801        H809   1.085       .  S
C801        C802   1.347       .  D
C802        H810   1.083   1_565  S
C811        C812   1.403       .  A
C811        C816   1.407       .  A
C811        C819   1.487       .  S
C812        C813   1.397       .  A
C812        H821   1.084       .  S
C813        C814   1.409       .  A
C813        H822   1.082       .  S
C814        C815   1.405       .  A
C814        C817   1.494   1_565  S
C815        C816   1.403       .  A
C815        H823   1.084   1_565  S
C816        H824   1.081       .  S
C817        H825   1.085       .  S
C817        C818   1.349       .  D
C818        H826   1.085   1_545  S
C819        H827   1.088       .  S
C819        C820   1.347       .  D
C820        H828   1.086       .  S
C829        C830   1.402       .  A
C829        C834   1.409       .  A
C829        C837   1.487       .  S
C830        C831   1.397       .  A
C830        H839   1.084       .  S
C831        C832   1.409       .  A
C831        H840   1.082       .  S
C832        C833   1.403       .  A
C832        C835   1.490       .  S
C833        C834   1.401       .  A
C833        H841   1.084       .  S
C834        H842   1.081       .  S
C835        H843   1.087       .  S
C835        C836   1.344       .  D
C836        H844   1.086       .  S
C837        H845   1.087       .  S
C837        C838   1.347       .  D
C838        H846   1.086       .  S
C847        C848   1.404       .  A
C847        C852   1.411       .  A
C847        C855   1.497       .  S
C848        C849   1.401       .  A
C848        H857   1.084       .  S
C849        C850   1.410       .  A
C849        H858   1.081       .  S
C850        C851   1.405       .  A
C850        C853   1.499       .  S
C851        C852   1.404       .  A
C851        H859   1.085       .  S
C852        H860   1.081       .  S
C853        H861   1.086   1_655  S
C853        C854   1.348   1_655  D
C854        H862   1.085   1_455  S
C855        H863   1.086       .  S
C855        C856   1.349       .  D
C856        H864   1.085       .  S
C865        C866   1.403       .  A
C865        C870   1.410       .  A
C865        C873   1.493       .  S
C866        C867   1.397       .  A
C866        H875   1.085       .  S
C867        C868   1.408       .  A
C867        H876   1.080       .  S
C868        C869   1.406       .  A
C868        C871   1.495       .  S
C869        C870   1.405       .  A
C869        H877   1.084       .  S
C870        H878   1.079       .  S
C871        H879   1.084       .  S
C871        C872   1.352       .  D
C872        H880   1.085       .  S
C873        H881   1.089       .  S
C873        C874   1.349       .  D
C874        H882   1.086       .  S
C883        C884   1.405       .  A
C883        C888   1.408       .  A
C883        C891   1.493   1_565  S
C884        C885   1.400       .  A
C884        H893   1.083       .  S
C885        C886   1.408       .  A
C885        H894   1.081       .  S
C886        C887   1.405       .  A
C886        C889   1.493       .  S
C887        C888   1.401       .  A
C887        H895   1.083       .  S
C888        H896   1.081   1_565  S
C889        H897   1.083       .  S
C889        C890   1.351       .  D
C890        H898   1.084       .  S
C891        H899   1.087       .  S
C891        C892   1.349       .  D
C892        H900   1.084       .  S
C901        C902   1.400   1_455  A
C901        C906   1.409       .  A
C901        C909   1.486   1_455  S
C902        C903   1.398   1_655  A
C902        H911   1.085       .  S
C903        C904   1.410       .  A
C903        H912   1.081   1_455  S
C904        C905   1.401       .  A
C904        C907   1.487       .  S
C905        C906   1.399       .  A
C905        H913   1.085       .  S
C906        H914   1.081       .  S
C907        H915   1.087       .  S
C907        C908   1.343       .  D
C908        H916   1.084       .  S
C909        H917   1.088       .  S
C909        C910   1.342   1_655  D
C910        H918   1.086       .  S
C919        C920   1.403       .  A
C919        C924   1.409       .  A
C919        C927   1.491       .  S
C920        C921   1.403       .  A
C920        H929   1.085       .  S
C921        C922   1.412       .  A
C921        H930   1.078       .  S
C922        C923   1.403       .  A
C922        C925   1.494       .  S
C923        C924   1.397       .  A
C923        H931   1.084       .  S
C924        H932   1.081       .  S
C925        H933   1.088       .  S
C925        C926   1.347       .  D
C926        H934   1.083       .  S
C927        H935   1.086   1_655  S
C927        C928   1.345       .  D
C928        H936   1.085       .  S
