geometry optimzed in LAMMPS
_audit_creation_date              2020-11-30 
_audit_creation_method            'lammps2cif' 
_symmetry_space_group_name_H-M    'P1' 
_symmetry_Int_Tables_number       1 
_symmetry_cell_setting            triclinic 
loop_ 
_symmetry_equiv_pos_as_xyz 
  x,y,z 
_cell_length_a                    25.44654308 
_cell_length_b                    26.070176653623253 
_cell_length_c                    27.253854405797668 
_cell_angle_alpha                 90.76229977820331 
_cell_angle_beta                  91.1452436441731 
_cell_angle_gamma                 121.34625734219364 
loop_ 
_atom_site_label 
_atom_site_type_symbol 
_atom_site_fract_x 
_atom_site_fract_y 
_atom_site_fract_z 
_atom_site_charge 
O1          O  0.95027819  0.18932741  0.66216160    -0.57000
C2          C  0.11328498  0.30714117  0.66477187     0.75600
O3          O  0.03874993  0.36575643  0.59448536    -0.58200
C4          C  0.89585396  0.17922796  0.65921257     0.75600
C5          C  0.97407414  0.31842162  0.76688351     0.78000
Cd6        Cd  0.99693349  0.29879913  0.66671608     1.37500
O7          O  0.06331208  0.25897532  0.65337884    -0.57000
O8          O  0.97253411  0.27207951  0.75122045    -0.55800
C9          C  0.98818207  0.34125480  0.57024748     0.78000
O10         O  0.99017832  0.36042081  0.73656717    -0.58200
O11         O  0.10987464  0.35221420  0.67758562    -0.56600
O12         O  0.88941855  0.22408652  0.65595823    -0.56600
O13         O  0.94078108  0.30621815  0.59364368    -0.55800
O14         O  0.17371999  0.26325462  0.65264251    -0.57000
C15         C  0.26276786  0.19194163  0.66176461     0.75600
O16         O  0.29862500  0.37136692  0.58254314    -0.58200
C17         C  0.17207401  0.30991387  0.66288296     0.75600
C18         C  0.35282012  0.35703264  0.74967273     0.78000
Cd19       Cd  0.28499605  0.31194251  0.65783474     1.37500
O20         O  0.21820231  0.20052995  0.65961190    -0.57000
O21         O  0.29487806  0.32676665  0.74608378    -0.55800
C22         C  0.31810473  0.34430744  0.55676189     0.78000
O23         O  0.38139201  0.37623626  0.71011823    -0.58200
O24         O  0.31628902  0.23811064  0.66257653    -0.56600
O25         O  0.22315223  0.35846340  0.67105002    -0.56600
O26         O  0.33197627  0.31090423  0.57947093    -0.55800
O27         O  0.20096749  0.08433163  0.66263719    -0.57000
C28         C  0.13626939  0.89748995  0.65878776     0.75600
O29         O  0.29581011  0.01156272  0.57968950    -0.58200
C30         C  0.25391496  0.13180028  0.66178592     0.75600
C31         C  0.30274388  0.03153954  0.74827025     0.78000
Cd32       Cd  0.24186724  0.01685353  0.65558094     1.37500
O33         O  0.13195214  0.94358007  0.66388103    -0.57000
O34         O  0.24703755  0.01691298  0.74348629    -0.55800
C35         C  0.26085695  0.02135012  0.55244439     0.78000
O36         O  0.33087413  0.03575106  0.70897813    -0.58200
O37         O  0.18968902  0.90633768  0.65313958    -0.56600
O38         O  0.29984876  0.12540637  0.65972193    -0.56600
O39         O  0.22193200  0.02943390  0.57352996    -0.55800
O40         O  0.02792436  0.82856446  0.65833753    -0.57000
C41         C  0.86085921  0.71687099  0.65817082     0.75600
O42         O  0.01894776  0.70267230  0.58209840    -0.58200
C43         C  0.08159484  0.83677216  0.65874924     0.75600
C44         C  0.96687107  0.66748224  0.75066711     0.78000
Cd45       Cd  0.97360866  0.71892702  0.65693866     1.37500
O46         O  0.91161511  0.76595254  0.65425126    -0.57000
O47         O  0.98498968  0.72215565  0.74574361    -0.55800
C48         C  0.96978906  0.68151610  0.55623287     0.78000
O49         O  0.95785486  0.63645196  0.71164084    -0.58200
O50         O  0.86267806  0.66950785  0.66174311    -0.56600
O51         O  0.08569268  0.79031316  0.65858794    -0.56600
O52         O  0.92159013  0.66772467  0.57881484    -0.55800
O53         O  0.79931617  0.76105242  0.65377227    -0.57000
C54         C  0.70315563  0.82506012  0.66969191     0.75600
O55         O  0.62533191  0.69871060  0.58439965    -0.58200
C56         C  0.80236384  0.71442602  0.65853303     0.75600
C57         C  0.64599444  0.65400469  0.75530377     0.78000
Cd58       Cd  0.68712385  0.70779465  0.66040598     1.37500
O59         O  0.74845775  0.81755960  0.66808884    -0.57000
O60         O  0.68639321  0.70807350  0.74843584    -0.55800
C61         C  0.64618252  0.67301992  0.55843719     0.78000
O62         O  0.61777605  0.62283102  0.71682070    -0.58200
O63         O  0.64977242  0.77816337  0.66715371    -0.56600
O64         O  0.75234982  0.66517328  0.66362924    -0.56600
O65         O  0.67599162  0.65390032  0.58125433    -0.55800
O66         O  0.84597876  0.07328826  0.67024567    -0.57000
C67         C  0.71259636  0.88558691  0.67264570     0.75600
O68         O  0.67049226  0.02473770  0.72574799    -0.58200
C69         C  0.84193546  0.11889214  0.66143154     0.75600
C70         C  0.71162921  0.00314624  0.56515936     0.78000
Cd71       Cd  0.73363565  0.00460481  0.66849436     1.37500
O72         O  0.76621037  0.93181229  0.67768389    -0.57000
O73         O  0.75678941  0.00373382  0.58584483    -0.55800
C74         C  0.70441852  0.03221087  0.76351349     0.78000
O75         O  0.67096455  0.00140968  0.59290082    -0.58200
O76         O  0.66799265  0.89418772  0.66873709    -0.56600
O77         O  0.78857848  0.11083341  0.65628337    -0.56600
O78         O  0.74806484  0.02307910  0.75708437    -0.55800
O79         O  0.12617048  0.94553705  0.38874892    -0.57000
C80         C  0.24834580  0.12842396  0.38930385     0.75600
O81         O  0.29701835  0.01489971  0.47176945    -0.58200
C82         C  0.12893082  0.90049026  0.40190194     0.75600
C83         C  0.27944354  0.99115605  0.30416025     0.78000
Cd84       Cd  0.23783150  0.01435005  0.39513349     1.37500
O85         O  0.19666482  0.07992229  0.38419493    -0.57000
O86         O  0.23041605  0.99205345  0.30782930    -0.55800
C87         C  0.26043004  0.02146641  0.49865609     0.78000
O88         O  0.31275728  0.00455286  0.34324302    -0.58200
O89         O  0.29580392  0.12427802  0.39259463    -0.56600
O90         O  0.18166265  0.90844979  0.41095091    -0.56600
O91         O  0.21935352  0.02686765  0.47706170    -0.55800
O92         O  0.90749241  0.76847823  0.41195886    -0.57000
C93         C  0.07406340  0.84113556  0.40537907     0.75600
O94         O  0.01913315  0.71172092  0.47944209    -0.58200
C95         C  0.85653605  0.71999644  0.40363471     0.75600
C96         C  0.98534928  0.68407320  0.30866218     0.78000
Cd97       Cd  0.96963054  0.72287400  0.40388130     1.37500
O98         O  0.02057873  0.83215570  0.39823344    -0.57000
O99         O  0.97540386  0.72610996  0.31550600    -0.55800
C100        C  0.96970166  0.68321034  0.50239382     0.78000
O101        O  0.98337470  0.65512566  0.34641721    -0.58200
O102        O  0.07842008  0.79607522  0.41468518    -0.56600
O103        O  0.85798581  0.67290789  0.39463374    -0.56600
O104        O  0.92028741  0.66470183  0.47759566    -0.55800
O105        O  0.75247119  0.82661458  0.40599422    -0.57000
C106        C  0.79846211  0.71847483  0.40463785     0.75600
O107        O  0.62960589  0.70679868  0.48188269    -0.58200
C108        C  0.70765862  0.83480871  0.40679212     0.75600
C109        C  0.63137517  0.67555263  0.30733520     0.78000
Cd110      Cd  0.68588604  0.71595857  0.40528412     1.37500
O111        O  0.79738941  0.76620415  0.41114032    -0.57000
O112        O  0.68807201  0.69939505  0.31688430    -0.55800
C113        C  0.64596952  0.67509331  0.50432731     0.78000
O114        O  0.59735253  0.66355591  0.34405408    -0.58200
O115        O  0.74722245  0.66939721  0.39921139    -0.56600
O116        O  0.65423128  0.78866209  0.40705940    -0.56600
O117        O  0.67111661  0.65342405  0.47871768    -0.55800
O118        O  0.20537254  0.19011754  0.39923231    -0.57000
C119        C  0.15249198  0.30045223  0.41876380     0.75600
O120        O  0.28821171  0.36552509  0.47963440    -0.58200
C121        C  0.25277030  0.18657818  0.39344715     0.75600
C122        C  0.28945634  0.34247506  0.30550933     0.78000
Cd123      Cd  0.26200288  0.30003108  0.40440784     1.37500
O124        O  0.15301751  0.25242635  0.42411350    -0.57000
O125        O  0.24080532  0.29520900  0.31702095    -0.55800
C126        C  0.31396984  0.34238388  0.50270458     0.78000
O127        O  0.32820305  0.37158790  0.34049405    -0.58200
O128        O  0.20236142  0.34719188  0.40786969    -0.56600
O129        O  0.30434797  0.23543800  0.39322213    -0.56600
O130        O  0.32654559  0.30916981  0.47766792    -0.55800
O131        O  0.04494518  0.25533986  0.43017189    -0.57000
C132        C  0.88126648  0.18788756  0.40643434     0.75600
O133        O  0.03439461  0.36959725  0.49182558    -0.58200
C134        C  0.09644810  0.30210906  0.42231622     0.75600
C135        C  0.00285233  0.34676103  0.31639868     0.78000
Cd136      Cd  0.98710275  0.30511411  0.41590534     1.37500
O137        O  0.93457227  0.19688333  0.41480285    -0.57000
O138        O  0.00457797  0.30196765  0.33073475    -0.55800
C139        C  0.98582506  0.34328810  0.51612817     0.78000
O140        O  0.98917932  0.37370168  0.34841717    -0.58200
O141        O  0.87634604  0.23367067  0.40244717    -0.56600
O142        O  0.09727163  0.35042471  0.41521126    -0.56600
O143        O  0.93632689  0.30990484  0.49163337    -0.55800
O144        O  0.83460540  0.08198955  0.40161778    -0.57000
C145        C  0.71603034  0.89445412  0.40738242     0.75600
O146        O  0.66858496  0.00392703  0.48439157    -0.58200
C147        C  0.82787538  0.12686318  0.40325810     0.75600
C148        C  0.66593592  0.98018699  0.31350947     0.78000
Cd149      Cd  0.72614262  0.00731047  0.40772546     1.37500
O150        O  0.76815325  0.94167449  0.40136354    -0.57000
O151        O  0.71626195  0.98256958  0.32173039    -0.55800
C152        C  0.71072306  0.00494443  0.51131177     0.78000
O153        O  0.64386805  0.99492393  0.34886112    -0.58200
O154        O  0.67028045  0.90045717  0.41370084    -0.56600
O155        O  0.77336153  0.11647325  0.40374413    -0.56600
O156        O  0.75561963  0.00785717  0.48976172    -0.55800
C157        C  0.56153008  0.90547315  0.11118906    -0.01700
C158        C  0.32380668  0.91144509  0.11309215    -0.01700
C159        C  0.08616757  0.66234610  0.12039636    -0.01700
C160        C  0.09476237  0.43925331  0.11987307    -0.01700
C161        C  0.31866745  0.41306648  0.09718722    -0.01700
C162        C  0.54584023  0.66429353  0.09952700    -0.01700
C163        C  0.89549411  0.57492287  0.94948876    -0.01700
C164        C  0.88943369  0.34144232  0.96060578    -0.01700
C165        C  0.41477413  0.08675475  0.94797876    -0.01700
C166        C  0.65911245  0.09582364  0.96320542    -0.01700
C167        C  0.65237797  0.57065190  0.95679875    -0.01700
C168        C  0.42694058  0.32727399  0.94807335    -0.01700
C169        C  0.49496073  0.38321839  0.95880940     0.00700
C170        C  0.50849740  0.42259840  0.99961519    -0.11200
C171        C  0.56219422  0.47924829  0.00375001     0.02900
C172        C  0.60463907  0.50171423  0.96498188     0.00600
C173        C  0.60038491  0.45742945  0.93226615    -0.11200
C174        C  0.54502954  0.40108379  0.92612636     0.02800
H175        H  0.47765211  0.41117857  0.02934455     0.15800
H176        H  0.63636192  0.47023024  0.90598622     0.15800
C177        C  0.54019133  0.36530386  0.88337147     0.37400
C178        C  0.57511806  0.50871489  0.05134616     0.37300
N179        N  0.53692509  0.33722219  0.84893148    -0.42900
N180        N  0.58710969  0.53062717  0.09028069    -0.42900
C181        C  0.42443461  0.26532333  0.95741402     0.00700
C182        C  0.47863861  0.26264497  0.95911458    -0.11200
C183        C  0.47839751  0.20843322  0.95476326     0.02900
C184        C  0.42278662  0.15122009  0.95878182     0.00600
C185        C  0.36902061  0.15428009  0.96456022    -0.11200
C186        C  0.36880243  0.20866896  0.96288097     0.02800
H187        H  0.52317905  0.30319311  0.96062035     0.15800
H188        H  0.32519360  0.11281370  0.96703620     0.15800
C189        C  0.30931271  0.20319588  0.96204959     0.37400
C190        C  0.53606381  0.21596710  0.93979140     0.37300
N191        N  0.26142481  0.19833381  0.96130818    -0.42900
N192        N  0.58286367  0.22396225  0.92714645    -0.42900
C193        C  0.47755240  0.08781161  0.94958769     0.00700
C194        C  0.51566501  0.11196909  0.99250504    -0.11200
C195        C  0.57343850  0.11650924  0.99801735     0.02900
C196        C  0.59435870  0.09197910  0.96156159     0.00600
C197        C  0.55036681  0.05845233  0.92377388    -0.11200
C198        C  0.49638663  0.05896588  0.91525452     0.02800
H199        H  0.50152208  0.13111076  0.02115050     0.15800
H200        H  0.55843712  0.03224175  0.89785704     0.15800
C201        C  0.46376212  0.02733201  0.87035647     0.37400
C202        C  0.60858901  0.14799094  0.04176831     0.37300
N203        N  0.44079646  0.00204037  0.83353240    -0.42900
N204        N  0.63262798  0.17477815  0.07775690    -0.42900
C205        C  0.71215965  0.16440984  0.97654699     0.00700
C206        C  0.71831451  0.20709588  0.94217543    -0.11200
C207        C  0.77294415  0.26238755  0.93644562     0.02900
C208        C  0.82455490  0.28240621  0.96972356     0.00600
C209        C  0.81236250  0.24721812  0.01174440    -0.11200
C210        C  0.75705202  0.19069938  0.01651530     0.02800
H211        H  0.68031823  0.19668222  0.91760338     0.15800
H212        H  0.84412190  0.26505057  0.04297195     0.15800
C213        C  0.74398686  0.17260925  0.06674897     0.37400
C214        C  0.77430727  0.29500135  0.89348497     0.37300
N215        N  0.73574912  0.16012518  0.10766205    -0.42900
N216        N  0.77403942  0.31993778  0.85874521    -0.42900
C217        C  0.72064213  0.58152765  0.96364983     0.00700
C218        C  0.76550938  0.61378941  0.92837478    -0.11200
C219        C  0.82433885  0.62175695  0.92920218     0.02900
C220        C  0.83864394  0.58485927  0.95842916     0.00600
C221        C  0.79867026  0.55928951  0.99804163    -0.11200
C222        C  0.74154900  0.55738602  0.00123442     0.02800
H223        H  0.75723492  0.63529833  0.89865691     0.15800
H224        H  0.81263178  0.54180562  0.02803488     0.15800
C225        C  0.70710077  0.52884129  0.04396060     0.37400
C226        C  0.86851960  0.67259901  0.90146353     0.37300
N227        N  0.68407334  0.50518246  0.07975601    -0.42900
N228        N  0.90190403  0.71347206  0.87864123    -0.42900
C229        C  0.87409299  0.39201938  0.94936185     0.00700
C230        C  0.89594561  0.42667049  0.90746497    -0.11200
C231        C  0.90524394  0.48455473  0.90577445     0.02900
C232        C  0.87674355  0.50515078  0.94061913     0.00600
C233        C  0.83499380  0.45848657  0.97126900    -0.11200
C234        C  0.83975091  0.40748757  0.98048922     0.02800
H235        H  0.91331934  0.41255562  0.87778948     0.15800
H236        H  0.80582774  0.46522492  0.99486275     0.15800
C237        C  0.81144154  0.37432750  0.02394136     0.37400
C238        C  0.95186269  0.52004289  0.87085307     0.37300
N239        N  0.78879374  0.34845001  0.05908303    -0.42900
N240        N  0.98942693  0.54459082  0.84217622    -0.42900
C241        C  0.59072705  0.66342796  0.05886838     0.00700
C242        C  0.56487623  0.64307985  0.01199691    -0.11200
C243        C  0.57961668  0.60865294  0.98257364     0.02900
C244        C  0.63500225  0.60818823  0.99162870     0.00600
C245        C  0.67331253  0.64640822  0.03076108    -0.11200
C246        C  0.65294397  0.67584201  0.06293006     0.02800
H247        H  0.52988684  0.65064244  0.99916222     0.15800
H248        H  0.71912487  0.65397049  0.03609912     0.15800
C249        C  0.69970419  0.72348825  0.09444675     0.37400
C250        C  0.53432513  0.57352135  0.94432209     0.37300
N251        N  0.73765496  0.76189797  0.11919838    -0.42900
N252        N  0.49644024  0.54655985  0.91440799    -0.42900
C253        C  0.32669477  0.37089827  0.05917669     0.00700
C254        C  0.32242009  0.38000100  0.00867871    -0.11200
C255        C  0.34104209  0.35475532  0.97179868     0.02900
C256        C  0.38041924  0.33236765  0.98374270     0.00600
C257        C  0.38008643  0.31803064  0.03341487    -0.11200
C258        C  0.35250175  0.33418126  0.07009082     0.02800
H259        H  0.30228879  0.40591509  0.99738678     0.15800
H260        H  0.40519602  0.29665202  0.04445180     0.15800
C261        C  0.35476145  0.31182136  0.11769485     0.37400
C262        C  0.30894231  0.34344160  0.92496327     0.37300
N263        N  0.35717904  0.29152996  0.15461301    -0.42900
N264        N  0.28126326  0.33355174  0.88823887    -0.42900
C265        C  0.37965308  0.47577078  0.09055716     0.00700
C266        C  0.38039514  0.51985031  0.06053969    -0.11200
C267        C  0.43183972  0.57916678  0.05903948     0.02900
C268        C  0.48356775  0.59950245  0.09322254     0.00600
C269        C  0.48453504  0.55156378  0.11628690    -0.11200
C270        C  0.43724020  0.49148114  0.11230620     0.02800
H271        H  0.34048626  0.50760312  0.03702553     0.15800
H272        H  0.52374988  0.55946997  0.13780135     0.15800
C273        C  0.45031347  0.44921642  0.13461764     0.37400
C274        C  0.42767830  0.61398970  0.01996865     0.37300
N275        N  0.46539562  0.41929817  0.15364415    -0.42900
N276        N  0.42277554  0.64045102  0.98821573    -0.42900
C277        C  0.03772770  0.40726859  0.08075669     0.00700
C278        C  0.00922602  0.43869016  0.06605707    -0.11200
C279        C  0.96987880  0.42279950  0.02546557     0.02900
C280        C  0.93798459  0.36299263  0.00551826     0.00600
C281        C  0.95793435  0.32539421  0.02555284    -0.11200
C282        C  0.00538457  0.34607442  0.06321007     0.02800
H283        H  0.02096141  0.48019527  0.08367440     0.15800
H284        H  0.93675375  0.27957504  0.01148139     0.15800
C285        C  0.01570637  0.30204838  0.08548227     0.37400
C286        C  0.98380592  0.47527119  0.99833472     0.37300
N287        N  0.02325086  0.26615637  0.10314160    -0.42900
N288        N  0.00323720  0.51966455  0.97756253    -0.42900
C289        C  0.26087300  0.42188068  0.09122037     0.00700
C290        C  0.26390262  0.46807234  0.12110095    -0.11200
C291        C  0.21403464  0.47553447  0.12948338     0.02900
C292        C  0.15530681  0.43847024  0.10483587     0.00600
C293        C  0.15496940  0.39846319  0.06837993    -0.11200
C294        C  0.20416049  0.38712484  0.06358377     0.02800
H295        H  0.30663602  0.49865099  0.14076044     0.15800
H296        H  0.11539626  0.37340560  0.04412851     0.15800
C297        C  0.19164557  0.33696295  0.03210411     0.37400
C298        C  0.22851255  0.52295103  0.16491211     0.37300
N299        N  0.18000726  0.29628117  0.00661627    -0.42900
N300        N  0.24610368  0.56273226  0.19289509    -0.42900
C301        C  0.94152042  0.60253521  0.99675476     0.00700
C302        C  0.93989090  0.56427498  0.03371207    -0.11200
C303        C  0.98318181  0.58243930  0.07284393     0.02900
C304        C  0.03431648  0.64241278  0.07777956     0.00600
C305        C  0.02735647  0.68329183  0.04817219    -0.11200
C306        C  0.98049129  0.66449665  0.01053888     0.02800
H307        H  0.90332271  0.51881802  0.03470201     0.15800
H308        H  0.05701152  0.73084479  0.05463206     0.15800
C309        C  0.97451300  0.71106826  0.98822639     0.37400
C310        C  0.96780980  0.53685176  0.10858802     0.37300
N311        N  0.97258328  0.75112896  0.97264044    -0.42900
N312        N  0.94981488  0.49714044  0.13504105    -0.42900
C313        C  0.11614058  0.50865635  0.12540108     0.00700
C314        C  0.13188173  0.54359433  0.08266268    -0.11200
C315        C  0.12462925  0.59396567  0.07993229     0.02900
C316        C  0.10815052  0.61511111  0.12200362     0.00600
C317        C  0.11784069  0.59395929  0.16657990    -0.11200
C318        C  0.11675137  0.53972006  0.16932841     0.02800
H319        H  0.13992643  0.52598691  0.04924242     0.15800
H320        H  0.12170881  0.61688602  0.20073009     0.15800
C321        C  0.12089930  0.52162491  0.21851135     0.37400
C322        C  0.13457703  0.62187788  0.03319179     0.37300
N323        N  0.12515083  0.50921950  0.25841731    -0.42900
N324        N  0.14457734  0.64303470  0.99494293    -0.42900
C325        C  0.33189732  0.95482160  0.06921312     0.00700
C326        C  0.34462271  0.93936712  0.02319812    -0.11200
C327        C  0.36222217  0.97699070  0.98275395     0.02900
C328        C  0.37709245  0.03789077  0.98750617     0.00600
C329        C  0.36471100  0.05427324  0.03322734    -0.11200
C330        C  0.34142948  0.01466348  0.07280766     0.02800
H331        H  0.34064955  0.89602327  0.01870678     0.15800
H332        H  0.37742781  0.10030575  0.04013636     0.15800
C333        C  0.33918235  0.04390613  0.11741326     0.37400
C334        C  0.35938772  0.94787328  0.93670516     0.37300
N335        N  0.33877366  0.07011233  0.15189935    -0.42900
N336        N  0.35238983  0.91961077  0.90138664    -0.42900
C337        C  0.26376896  0.84416587  0.10847066     0.00700
C338        C  0.24645387  0.81015431  0.15187491    -0.11200
C339        C  0.19112975  0.75473112  0.15666084     0.02900
C340        C  0.14892960  0.72549099  0.11600809     0.00600
C341        C  0.16838889  0.75593412  0.07137173    -0.11200
C342        C  0.22001666  0.81529719  0.06808376     0.02800
H343        H  0.27517311  0.82929473  0.18488791     0.15800
H344        H  0.14220474  0.73442791  0.03796787     0.15800
C345        C  0.21990032  0.84394744  0.02339310     0.37400
C346        C  0.17905530  0.73253176  0.20592116     0.37300
N347        N  0.21578452  0.86386190  0.98683001    -0.42900
N348        N  0.17096624  0.71753054  0.24625840    -0.42900
C349        C  0.60240607  0.95051373  0.07061052     0.00700
C350        C  0.57733941  0.93701223  0.02229250    -0.11200
C351        C  0.59931637  0.98037726  0.98576858     0.02900
C352        C  0.64706061  0.04127793  0.99682453     0.00600
C353        C  0.68301786  0.04703113  0.03867609    -0.11200
C354        C  0.66087031  0.00495050  0.07656370     0.02800
H355        H  0.53758675  0.89280113  0.01365892     0.15800
H356        H  0.73099528  0.08091349  0.03975221     0.15800
C357        C  0.70165981  0.01945489  0.11888949     0.37400
C358        C  0.57722615  0.95723079  0.93653217     0.37300
N359        N  0.73543075  0.03252534  0.15232827    -0.42900
N360        N  0.55976761  0.93624753  0.89750258    -0.42900
C361        C  0.55583610  0.84295785  0.09647810     0.00700
C362        C  0.49867522  0.78951173  0.08693001    -0.11200
C363        C  0.49070759  0.73151307  0.08999670     0.02900
C364        C  0.54286162  0.72375893  0.09254936     0.00600
C365        C  0.60032582  0.77824154  0.09309593    -0.11200
C366        C  0.60765632  0.83569653  0.09507027     0.02800
H367        H  0.45803374  0.79195383  0.08064930     0.15800
H368        H  0.64156241  0.77660364  0.09485254     0.15800
C369        C  0.67048492  0.88525113  0.09858593     0.37400
C370        C  0.42767269  0.68478707  0.09682574     0.37300
N371        N  0.72237186  0.92159327  0.10086741    -0.42900
N372        N  0.37615292  0.64958348  0.10232905    -0.42900
C373        C  0.49730581  0.90276493  0.11135397     0.00700
C374        C  0.49280590  0.95034757  0.09149006    -0.11200
C375        C  0.44321392  0.95790265  0.10021992     0.02900
C376        C  0.38554787  0.90906788  0.11512083     0.00600
C377        C  0.38922718  0.86093042  0.13521839    -0.11200
C378        C  0.44523584  0.86137863  0.13845793     0.02800
H379        H  0.53198983  0.98788129  0.07510321     0.15800
H380        H  0.35031040  0.82404312  0.15184153     0.15800
C381        C  0.44785383  0.82041572  0.17205980     0.37400
C382        C  0.45851625  0.01956356  0.10241084     0.37300
N383        N  0.44925942  0.78773151  0.19958336    -0.42900
N384        N  0.47393055  0.06980479  0.10590814    -0.42900
C385        C  0.58839322  0.92615719  0.16536096     0.00700
C386        C  0.59765032  0.88763386  0.19593765    -0.11200
C387        C  0.62237616  0.90446053  0.24379515     0.02900
C388        C  0.63477080  0.95929192  0.26479292     0.00600
C389        C  0.62167271  0.99617608  0.23740142    -0.11200
C390        C  0.59962098  0.98109167  0.18847346     0.02800
H391        H  0.58495322  0.84301606  0.18379535     0.15800
H392        H  0.63182779  0.03877090  0.25360111     0.15800
C393        C  0.59499318  0.02689387  0.16331534     0.37400
C394        C  0.63347426  0.86362589  0.27108678     0.37300
N395        N  0.59417133  0.06638831  0.14525816    -0.42900
N396        N  0.64247426  0.83085143  0.29264289    -0.42900
C397        C  0.06648706  0.40671281  0.16918556     0.00700
C398        C  0.01405911  0.40667873  0.18689055    -0.11200
C399        C  0.99195518  0.38780562  0.23437386     0.02900
C400        C  0.02108669  0.36690967  0.26546741     0.00600
C401        C  0.06819777  0.36064162  0.24661254    -0.11200
C402        C  0.08942920  0.37803869  0.19926983     0.02800
H403        H  0.99230592  0.42493675  0.16468257     0.15800
H404        H  0.08860211  0.34107112  0.26921377     0.15800
C405        C  0.12986935  0.35925533  0.18294523     0.37400
C406        C  0.93876722  0.38902099  0.24982957     0.37300
N407        N  0.16067003  0.34123384  0.17130055    -0.42900
N408        N  0.89567147  0.38933885  0.26210799    -0.42900
C409        C  0.29877571  0.36130875  0.25352434     0.00700
C410        C  0.26329381  0.31859677  0.21618570    -0.11200
C411        C  0.26851755  0.33386880  0.16650616     0.02900
C412        C  0.31297008  0.39293127  0.15204090     0.00600
C413        C  0.34440004  0.43619486  0.19095144    -0.11200
C414        C  0.33861606  0.42104231  0.24037317     0.02800
H415        H  0.23047028  0.27266927  0.22579931     0.15800
H416        H  0.37301986  0.48343331  0.18373597     0.15800
C417        C  0.37146953  0.46882989  0.27681453     0.37400
C418        C  0.22759895  0.28683571  0.13161152     0.37300
N419        N  0.39760609  0.50734313  0.30584267    -0.42900
N420        N  0.19461604  0.24776263  0.10488314    -0.42900
C421        C  0.60770741  0.66714157  0.25578765     0.00700
C422        C  0.55882568  0.67524577  0.24506356    -0.11200
C423        C  0.53831929  0.67399663  0.19651789     0.02900
C424        C  0.56913264  0.66788916  0.15529176     0.00600
C425        C  0.61393353  0.65288642  0.16836428    -0.11200
C426        C  0.63497689  0.65499049  0.21669755     0.02800
H427        H  0.53568195  0.68205694  0.27525289     0.15800
H428        H  0.62863275  0.63240535  0.14208505     0.15800
C429        C  0.68224174  0.64076576  0.22503250     0.37400
C430        C  0.48017827  0.67040070  0.19356365     0.37300
N431        N  0.72021504  0.62948905  0.23131657    -0.42900
N432        N  0.43263726  0.66540599  0.19795301    -0.42900
C433        C  0.00190701  0.67306577  0.25927309     0.00700
C434        C  0.02203507  0.71847187  0.22475624    -0.11200
C435        C  0.04554256  0.71444415  0.17969069     0.02900
C436        C  0.05204773  0.66450894  0.16794633     0.00600
C437        C  0.02360984  0.61610166  0.20095804    -0.11200
C438        C  0.00056096  0.62033156  0.24604446     0.02800
H439        H  0.02091993  0.75862762  0.23345312     0.15800
H440        H  0.01980315  0.57394473  0.19349393     0.15800
C441        C  0.97517665  0.56927829  0.27765340     0.37400
C442        C  0.06238940  0.76350838  0.14739629     0.37300
N443        N  0.95475824  0.52837538  0.30293773    -0.42900
N444        N  0.07397481  0.80373037  0.12291383    -0.42900
C445        C  0.29452014  0.97376152  0.25628752     0.00700
C446        C  0.25076657  0.95462934  0.21737187    -0.11200
C447        C  0.26064582  0.93695852  0.17152059     0.02900
C448        C  0.31587792  0.93731672  0.16269020     0.00600
C449        C  0.35980742  0.95669909  0.20216046    -0.11200
C450        C  0.34966876  0.97466143  0.24815468     0.02800
H451        H  0.20832114  0.95411922  0.22234548     0.15800
H452        H  0.40253695  0.95781395  0.19800783     0.15800
C453        C  0.39686005  0.99340684  0.28621504     0.37400
C454        C  0.21574940  0.92443056  0.13260579     0.37300
N455        N  0.43485802  0.00832640  0.31658344    -0.42900
N456        N  0.18126008  0.91683191  0.10094119    -0.42900
C457        C  0.69529192  0.05150061  0.81292986     0.00700
C458        C  0.72217925  0.04223654  0.85477358    -0.11200
C459        C  0.71491646  0.05907115  0.90235513     0.02900
C460        C  0.67712018  0.08391599  0.91010692     0.00600
C461        C  0.65865761  0.10085672  0.86640212    -0.11200
C462        C  0.66497342  0.08318979  0.81922459     0.02800
H463        H  0.74942363  0.02154323  0.85038829     0.15800
H464        H  0.63445135  0.12459268  0.86798731     0.15800
C465        C  0.64030518  0.09935643  0.77806417     0.37400
C466        C  0.74934377  0.05159720  0.94128076     0.37300
N467        N  0.62024413  0.11252257  0.74547147    -0.42900
N468        N  0.77823889  0.04483803  0.97093051    -0.42900
C469        C  0.63707910  0.63038889  0.80607407     0.00700
C470        C  0.66952965  0.67181708  0.84468506    -0.11200
C471        C  0.67408141  0.65383437  0.89187834     0.02900
C472        C  0.64495478  0.59129321  0.90320993     0.00600
C473        C  0.60580444  0.55059926  0.86485016    -0.11200
C474        C  0.60341348  0.56904787  0.81697509     0.02800
H475        H  0.69437784  0.71952955  0.83758225     0.15800
H476        H  0.57415920  0.50399087  0.87085260     0.15800
C477        C  0.56654769  0.52347120  0.77983651     0.37400
C478        C  0.71342475  0.70213208  0.92647658     0.37300
N479        N  0.53704057  0.48652976  0.75035837    -0.42900
N480        N  0.74552122  0.74182009  0.95306174    -0.42900
C481        C  0.95254826  0.64138568  0.79971656     0.00700
C482        C  0.99669902  0.66790403  0.83802384    -0.11200
C483        C  0.98326432  0.64772095  0.88641648     0.02900
C484        C  0.92168264  0.60290618  0.89846382     0.00600
C485        C  0.87825508  0.57626559  0.85810993    -0.11200
C486        C  0.89298022  0.59477306  0.80995934     0.02800
H487        H  0.04305490  0.70314064  0.82950585     0.15800
H488        H  0.83148925  0.54043460  0.86475137     0.15800
C489        C  0.84480789  0.56764589  0.77222494     0.37400
C490        C  0.03633435  0.66850504  0.91847557     0.37300
N491        N  0.80613125  0.54616321  0.74207601    -0.42900
N492        N  0.08139040  0.68753696  0.94181509    -0.42900
C493        C  0.33232533  0.04428766  0.79792840     0.00700
C494        C  0.29496958  0.01568387  0.83775554    -0.11200
C495        C  0.31832587  0.02908578  0.88619738     0.02900
C496        C  0.38248534  0.07006537  0.89604972     0.00600
C497        C  0.41774477  0.10339640  0.85588207    -0.11200
C498        C  0.39417468  0.08957999  0.80738427     0.02800
H499        H  0.24624581  0.98359162  0.83107618     0.15800
H500        H  0.46535162  0.13875079  0.86221011     0.15800
C501        C  0.43392741  0.12415400  0.76839498     0.37400
C502        C  0.27311727  0.00396631  0.92381961     0.37300
N503        N  0.46570589  0.15176850  0.73706944    -0.42900
N504        N  0.23594841  0.98414355  0.95329115    -0.42900
C505        C  0.38304199  0.35675845  0.79621465     0.00700
C506        C  0.37602767  0.30178980  0.80756246    -0.11200
C507        C  0.38992022  0.29003879  0.85428654     0.02900
C508        C  0.41212809  0.33482645  0.89293589     0.00600
C509        C  0.42449419  0.39273012  0.87883117    -0.11200
C510        C  0.40885435  0.40338936  0.83170498     0.02800
H511        H  0.35663039  0.26612055  0.77944532     0.15800
H512        H  0.44258071  0.42890850  0.90610800     0.15800
C513        C  0.41585571  0.46074845  0.82155702     0.37400
C514        C  0.37833071  0.23034972  0.85807833     0.37300
N515        N  0.42130983  0.50666628  0.81322028    -0.42900
N516        N  0.36631223  0.18110923  0.85693978    -0.42900
C517        C  0.95622594  0.32107874  0.81785393     0.00700
C518        C  0.99553548  0.36950829  0.84901737    -0.11200
C519        C  0.98036756  0.37241909  0.89788213     0.02900
C520        C  0.92038627  0.32945693  0.91518590     0.00600
C521        C  0.88700171  0.27608930  0.88568111    -0.11200
C522        C  0.90334752  0.27225941  0.83758712     0.02800
H523        H  0.03963109  0.40415242  0.83565311     0.15800
H524        H  0.84648135  0.23679097  0.89865466     0.15800
C525        C  0.86320028  0.21835261  0.80851696     0.37400
C526        C  0.03028803  0.41743028  0.92858349     0.30700
N527        N  0.83109698  0.17525313  0.78519840    -0.42900
N528        N  0.07344621  0.45271546  0.95125592    -0.42900
loop_ 
_geom_bond_atom_site_label_1 
_geom_bond_atom_site_label_2 
_geom_bond_distance 
_geom_bond_site_symmetry_2 
_ccdc_geom_bond_type 
O1            C4   1.269       .  A
O1           Cd6   2.455       .  S
C2           O11   1.268       .  A
C2            O7   1.266       .  A
C2           C17   1.462       .  S
O3            C9   1.265   1_455  A
O3           Cd6   2.509   1_455  S
C4           O12   1.266       .  A
C4           C69   1.456       .  S
C5           O10   1.273       .  A
C5            O8   1.257       .  A
C5          C517   1.482       .  S
Cd6          O13   2.496       .  S
Cd6          O12   2.403       .  S
Cd6          O11   2.465   1_655  S
Cd6           O7   2.429   1_655  S
Cd6          O10   2.540       .  S
Cd6           O8   2.413       .  S
C9           O13   1.263       .  A
C9          C139   1.478       .  S
O14          C17   1.266       .  A
O14         Cd19   2.427       .  S
C15          O24   1.264       .  A
C15          O20   1.265       .  A
C15          C30   1.463       .  S
O16          C22   1.266       .  A
O16         Cd19   2.507       .  S
C17          O25   1.269       .  A
C18          O23   1.268       .  A
C18          O21   1.260       .  A
C18         C505   1.472       .  S
Cd19         O26   2.475       .  S
Cd19         O25   2.465       .  S
Cd19         O24   2.440       .  S
Cd19         O20   2.490       .  S
Cd19         O23   2.525       .  S
Cd19         O21   2.418       .  S
C22          O26   1.262       .  A
C22         C126   1.473       .  S
O27          C30   1.271       .  A
O27         Cd32   2.474       .  S
C28          O37   1.268       .  A
C28          O33   1.268       .  A
C28          C43   1.466       .  S
O29          C35   1.274       .  A
O29         Cd32   2.546       .  S
C30          O38   1.266       .  A
C31          O36   1.274       .  A
C31          O34   1.265       .  A
C31         C493   1.482       .  S
Cd32         O39   2.348       .  S
Cd32         O38   2.416       .  S
Cd32         O37   2.466   1_545  S
Cd32         O33   2.450   1_545  S
Cd32         O36   2.486       .  S
Cd32         O34   2.397       .  S
C35          O39   1.262       .  A
C35          C87   1.466       .  S
O40          C43   1.267       .  A
O40         Cd45   2.443   1_455  S
C41          O50   1.264       .  A
C41          O46   1.267       .  A
C41          C56   1.457       .  S
O42          C48   1.266   1_455  A
O42         Cd45   2.500   1_455  S
C43          O51   1.269       .  A
C44          O49   1.270       .  A
C44          O47   1.259       .  A
C44         C481   1.473       .  S
Cd45         O52   2.458       .  S
Cd45         O51   2.464   1_655  S
Cd45         O50   2.425       .  S
Cd45         O46   2.451       .  S
Cd45         O49   2.494       .  S
Cd45         O47   2.427       .  S
C48          O52   1.261       .  A
C48         C100   1.469       .  S
O53          C56   1.266       .  A
O53         Cd58   2.452       .  S
C54          O63   1.269       .  A
C54          O59   1.267       .  A
C54          C67   1.468       .  S
O55          C61   1.266       .  A
O55         Cd58   2.508       .  S
C56          O64   1.265       .  A
C57          O62   1.271       .  A
C57          O60   1.259       .  A
C57         C469   1.495       .  S
Cd58         O65   2.488       .  S
Cd58         O64   2.432       .  S
Cd58         O63   2.473       .  S
Cd58         O59   2.448       .  S
Cd58         O62   2.553       .  S
Cd58         O60   2.400       .  S
C61          O65   1.262       .  A
C61         C113   1.476       .  S
O66          C69   1.271       .  A
O66         Cd71   2.459       .  S
C67          O76   1.269       .  A
C67          O72   1.269       .  A
O68          C74   1.275       .  A
O68         Cd71   2.500       .  S
C69          O77   1.266       .  A
C70          O75   1.276       .  A
C70          O73   1.263       .  A
C70         C152   1.469       .  S
Cd71         O78   2.438       .  S
Cd71         O77   2.398       .  S
Cd71         O76   2.465   1_545  S
Cd71         O72   2.448   1_545  S
Cd71         O75   2.554       .  S
Cd71         O73   2.342       .  S
C74          O78   1.266       .  A
C74         C457   1.496       .  S
O79          C82   1.268       .  A
O79         Cd84   2.448   1_565  S
C80          O89   1.269       .  A
C80          O85   1.267       .  A
C80         C121   1.463       .  S
O81          C87   1.274       .  A
O81         Cd84   2.546       .  S
C82          O90   1.265       .  A
C82          C93   1.454       .  S
C83          O88   1.273   1_565  A
C83          O86   1.266       .  A
C83         C445   1.497       .  S
Cd84         O91   2.344       .  S
Cd84         O90   2.409   1_545  S
Cd84         O89   2.450       .  S
Cd84         O85   2.444       .  S
Cd84         O88   2.511       .  S
Cd84         O86   2.422   1_545  S
C87          O91   1.261       .  A
O92          C95   1.267       .  A
O92         Cd97   2.434       .  S
C93         O102   1.264       .  A
C93          O98   1.266       .  A
O94         C100   1.264   1_455  A
O94         Cd97   2.491   1_455  S
C95         O103   1.268       .  A
C95         C106   1.458       .  S
C96         O101   1.270       .  A
C96          O99   1.259       .  A
C96         C433   1.487   1_655  S
Cd97        O104   2.473       .  S
Cd97        O103   2.438       .  S
Cd97        O102   2.418   1_655  S
Cd97         O98   2.449   1_655  S
Cd97        O101   2.507       .  S
Cd97         O99   2.416       .  S
C100        O104   1.264       .  A
O105        C108   1.265       .  A
O105       Cd110   2.471       .  S
C106        O115   1.269       .  A
C106        O111   1.269       .  A
O107        C113   1.262       .  A
O107       Cd110   2.499       .  S
C108        O116   1.263       .  A
C108        C145   1.455       .  S
C109        O114   1.269       .  A
C109        O112   1.258       .  A
C109        C421   1.485       .  S
Cd110       O117   2.507       .  S
Cd110       O116   2.415       .  S
Cd110       O115   2.432       .  S
Cd110       O111   2.429       .  S
Cd110       O114   2.513       .  S
Cd110       O112   2.449       .  S
C113        O117   1.265       .  A
O118        C121   1.269       .  A
O118       Cd123   2.448       .  S
C119        O128   1.265       .  A
C119        O124   1.269       .  A
C119        C134   1.454       .  S
O120        C126   1.263       .  A
O120       Cd123   2.496       .  S
C121        O129   1.267       .  A
C122        O127   1.274       .  A
C122        O125   1.260       .  A
C122        C409   1.488       .  S
Cd123       O130   2.488       .  S
Cd123       O129   2.445       .  S
Cd123       O128   2.402       .  S
Cd123       O124   2.453       .  S
Cd123       O127   2.507       .  S
Cd123       O125   2.418       .  S
C126        O130   1.265       .  A
O131        C134   1.267       .  A
O131       Cd136   2.445   1_455  S
C132        O141   1.269       .  A
C132        O137   1.266       .  A
C132        C147   1.458       .  S
O133        C139   1.265   1_455  A
O133       Cd136   2.502   1_455  S
C134        O142   1.266       .  A
C135        O140   1.275   1_455  A
C135        O138   1.258       .  A
C135        C400   1.486       .  S
Cd136       O143   2.492       .  S
Cd136       O142   2.411   1_655  S
Cd136       O141   2.455       .  S
Cd136       O137   2.413       .  S
Cd136       O140   2.564       .  S
Cd136       O138   2.380   1_655  S
C139        O143   1.265       .  A
O144        C147   1.268       .  A
O144       Cd149   2.423       .  S
C145        O154   1.267       .  A
C145        O150   1.272       .  A
O146        C152   1.276       .  A
O146       Cd149   2.552       .  S
C147        O155   1.268       .  A
C148        O153   1.276       .  A
C148        O151   1.265       .  A
C148        C388   1.476       .  S
Cd149       O156   2.342       .  S
Cd149       O155   2.452       .  S
Cd149       O154   2.389   1_545  S
Cd149       O150   2.450   1_545  S
Cd149       O153   2.492   1_545  S
Cd149       O151   2.396   1_545  S
C152        O156   1.262       .  A
C157        C349   1.579       .  S
C157        C361   1.604       .  S
C157        C373   1.599       .  S
C157        C385   1.579       .  S
C158        C325   1.598       .  S
C158        C337   1.620       .  S
C158        C376   1.604       .  S
C158        C448   1.566       .  S
C159        C304   1.603       .  S
C159        C316   1.596       .  S
C159        C340   1.598       .  S
C159        C436   1.591       .  S
C160        C277   1.610       .  S
C160        C292   1.612       .  S
C160        C313   1.599       .  S
C160        C397   1.574       .  S
C161        C253   1.592       .  S
C161        C265   1.579       .  S
C161        C289   1.608       .  S
C161        C412   1.575       .  S
C162        C241   1.615       .  S
C162        C268   1.609       .  S
C162        C364   1.605       .  S
C162        C424   1.604       .  S
C163        C220   1.619       .  S
C163        C232   1.636       .  S
C163        C301   1.608       .  S
C163        C484   1.571       .  S
C164        C208   1.593       .  S
C164        C229   1.589       .  S
C164        C280   1.594   1_556  S
C164        C520   1.592       .  S
C165        C184   1.606       .  S
C165        C193   1.583       .  S
C165        C328   1.584       .  S
C165        C496   1.560       .  S
C166        C196   1.598       .  S
C166        C205   1.614       .  S
C166        C352   1.596       .  S
C166        C460   1.601       .  S
C167        C172   1.583       .  S
C167        C217   1.614       .  S
C167        C244   1.580       .  S
C167        C472   1.604       .  S
C168        C169   1.597       .  S
C168        C181   1.607       .  S
C168        C256   1.603       .  S
C168        C508   1.582       .  S
C169        C170   1.413       .  A
C169        C174   1.440       .  A
C170        C171   1.397   1_556  A
C170        H175   1.072   1_556  S
C171        C172   1.425   1_554  A
C171        C178   1.440       .  S
C172        C173   1.407       .  A
C173        C174   1.415       .  A
C173        H176   1.085       .  S
C174        C177   1.445       .  S
C177        N179   1.157       .  T
C178        N180   1.155       .  T
C181        C182   1.417       .  A
C181        C186   1.431       .  A
C182        C183   1.414       .  A
C182        H187   1.074       .  S
C183        C184   1.433       .  A
C183        C190   1.444       .  S
C184        C185   1.423       .  A
C185        C186   1.422       .  A
C185        H188   1.081       .  S
C186        C189   1.444       .  S
C189        N191   1.157       .  T
C190        N192   1.158       .  T
C193        C194   1.416       .  A
C193        C198   1.430       .  A
C194        C195   1.417       .  A
C194        H199   1.084   1_556  S
C195        C196   1.428       .  A
C195        C202   1.436   1_556  S
C196        C197   1.411       .  A
C197        C198   1.395       .  A
C197        H200   1.071       .  S
C198        C201   1.445       .  S
C201        N203   1.158       .  T
C202        N204   1.156       .  T
C205        C206   1.412       .  A
C205        C210   1.441   1_556  A
C206        C207   1.402       .  A
C206        H211   1.074       .  S
C207        C208   1.431       .  A
C207        C214   1.447       .  S
C208        C209   1.413   1_556  A
C209        C210   1.423       .  A
C209        H212   1.079       .  S
C210        C213   1.442       .  S
C213        N215   1.158       .  T
C214        N216   1.158       .  T
C217        C218   1.415       .  A
C217        C222   1.439   1_556  A
C218        C219   1.400       .  A
C218        H223   1.069       .  S
C219        C220   1.437       .  A
C219        C226   1.450       .  S
C220        C221   1.415       .  A
C221        C222   1.433   1_556  A
C221        H224   1.081   1_556  S
C222        C225   1.436       .  S
C225        N227   1.157       .  T
C226        N228   1.158       .  T
C229        C230   1.400       .  A
C229        C234   1.426       .  A
C230        C231   1.402       .  A
C230        H235   1.077       .  S
C231        C232   1.461       .  A
C231        C238   1.448       .  S
C232        C233   1.423       .  A
C233        C234   1.421       .  A
C233        H236   1.071       .  S
C234        C237   1.443   1_556  S
C237        N239   1.157       .  T
C238        N240   1.158       .  T
C241        C242   1.390       .  A
C241        C246   1.443       .  A
C242        C243   1.390   1_554  A
C242        H247   1.061   1_554  S
C243        C244   1.432       .  A
C243        C250   1.443       .  S
C244        C245   1.414   1_556  A
C245        C246   1.428       .  A
C245        H248   1.083       .  S
C246        C249   1.446       .  S
C249        N251   1.158       .  T
C250        N252   1.156       .  T
C253        C254   1.411       .  A
C253        C258   1.446       .  A
C254        C255   1.412   1_554  A
C254        H259   1.083   1_554  S
C255        C256   1.432       .  A
C255        C262   1.443       .  S
C256        C257   1.408   1_556  A
C257        C258   1.412       .  A
C257        H260   1.085       .  S
C258        C261   1.442       .  S
C261        N263   1.158       .  T
C262        N264   1.158       .  T
C265        C266   1.412       .  A
C265        C270   1.415       .  A
C266        C267   1.416       .  A
C266        H271   1.084       .  S
C267        C268   1.447       .  A
C267        C274   1.446       .  S
C268        C269   1.418       .  A
C269        C270   1.394       .  A
C269        H272   1.068       .  S
C270        C273   1.444       .  S
C273        N275   1.157       .  T
C274        N276   1.158   1_554  T
C277        C278   1.405       .  A
C277        C282   1.431       .  A
C278        C279   1.382   1_455  A
C278        H283   1.065       .  S
C279        C280   1.424       .  A
C279        C286   1.441   1_554  S
C280        C281   1.427       .  A
C281        C282   1.435   1_655  A
C281        H284   1.084       .  S
C282        C285   1.442       .  S
C285        N287   1.157       .  T
C286        N288   1.157   1_655  T
C289        C290   1.412       .  A
C289        C294   1.431       .  A
C290        C291   1.403       .  A
C290        H295   1.081       .  S
C291        C292   1.435       .  A
C291        C298   1.441       .  S
C292        C293   1.428       .  A
C293        C294   1.436       .  A
C293        H296   1.075       .  S
C294        C297   1.440       .  S
C297        N299   1.158       .  T
C298        N300   1.158       .  T
C301        C302   1.413   1_556  A
C301        C306   1.427   1_556  A
C302        C303   1.404       .  A
C302        H307   1.061       .  S
C303        C304   1.424   1_655  A
C303        C310   1.441       .  S
C304        C305   1.425       .  A
C305        C306   1.430   1_455  A
C305        H308   1.074       .  S
C306        C309   1.441   1_554  S
C309        N311   1.157       .  T
C310        N312   1.158       .  T
C313        C314   1.419       .  A
C313        C318   1.432       .  A
C314        C315   1.421       .  A
C314        H319   1.085       .  S
C315        C316   1.427       .  A
C315        C322   1.436       .  S
C316        C317   1.410       .  A
C317        C318   1.403       .  A
C317        H320   1.074       .  S
C318        C321   1.447       .  S
C321        N323   1.158       .  T
C322        N324   1.156   1_554  T
C325        C326   1.407       .  A
C325        C330   1.450   1_565  A
C326        C327   1.403   1_554  A
C326        H331   1.086       .  S
C327        C328   1.431   1_565  A
C327        C334   1.439       .  S
C328        C329   1.406   1_556  A
C329        C330   1.414       .  A
C329        H332   1.081       .  S
C330        C333   1.444       .  S
C333        N335   1.158       .  T
C334        N336   1.157       .  T
C337        C338   1.422       .  A
C337        C342   1.440       .  A
C338        C339   1.408       .  A
C338        H343   1.084       .  S
C339        C340   1.428       .  A
C339        C346   1.444       .  S
C340        C341   1.413       .  A
C341        C342   1.422       .  A
C341        H344   1.077       .  S
C342        C345   1.438       .  S
C345        N347   1.157   1_554  T
C346        N348   1.158       .  T
C349        C350   1.409       .  A
C349        C354   1.429   1_565  A
C350        C351   1.406   1_554  A
C350        H355   1.085       .  S
C351        C352   1.433   1_565  A
C351        C358   1.441       .  S
C352        C353   1.404   1_556  A
C353        C354   1.413       .  A
C353        H356   1.071       .  S
C354        C357   1.443       .  S
C357        N359   1.158       .  T
C358        N360   1.158       .  T
C361        C362   1.411       .  A
C361        C366   1.427       .  A
C362        C363   1.421       .  A
C362        H367   1.079       .  S
C363        C364   1.443       .  A
C363        C370   1.441       .  S
C364        C365   1.412       .  A
C365        C366   1.410       .  A
C365        H368   1.072       .  S
C366        C369   1.441       .  S
C369        N371   1.157       .  T
C370        N372   1.159       .  T
C373        C374   1.417       .  A
C373        C378   1.428       .  A
C374        C375   1.399       .  A
C374        H379   1.080       .  S
C375        C376   1.426       .  A
C375        C382   1.444   1_565  S
C376        C377   1.422       .  A
C377        C378   1.420       .  A
C377        H380   1.072       .  S
C378        C381   1.443       .  S
C381        N383   1.157       .  T
C382        N384   1.157       .  T
C385        C386   1.421       .  A
C385        C390   1.440       .  A
C386        C387   1.398       .  A
C386        H391   1.078       .  S
C387        C388   1.404       .  A
C387        C394   1.446       .  S
C388        C389   1.391       .  A
C389        C390   1.405       .  A
C389        H392   1.086   1_565  S
C390        C393   1.440   1_565  S
C393        N395   1.157       .  T
C394        N396   1.157       .  T
C397        C398   1.427       .  A
C397        C402   1.422       .  A
C398        C399   1.411   1_455  A
C398        H403   1.081   1_455  S
C399        C400   1.404   1_655  A
C399        C406   1.441       .  S
C400        C401   1.398       .  A
C401        C402   1.397       .  A
C401        H404   1.087       .  S
C402        C405   1.426       .  S
C405        N407   1.151       .  T
C406        N408   1.157       .  T
C409        C410   1.406       .  A
C409        C414   1.403       .  A
C410        C411   1.406       .  A
C410        H415   1.085       .  S
C411        C412   1.424       .  A
C411        C418   1.447       .  S
C412        C413   1.426       .  A
C413        C414   1.398       .  A
C413        H416   1.079       .  S
C414        C417   1.445       .  S
C417        N419   1.157       .  T
C418        N420   1.157       .  T
C421        C422   1.392       .  A
C421        C426   1.402       .  A
C422        C423   1.406       .  A
C422        H427   1.086       .  S
C423        C424   1.436       .  A
C423        C430   1.433       .  S
C424        C425   1.425       .  A
C425        C426   1.402       .  A
C425        H428   1.071       .  S
C426        C429   1.446       .  S
C429        N431   1.157       .  T
C430        N432   1.156       .  T
C433        C434   1.402       .  A
C433        C438   1.399       .  A
C434        C435   1.403       .  A
C434        H439   1.085       .  S
C435        C436   1.428       .  A
C435        C442   1.438       .  S
C436        C437   1.425       .  A
C437        C438   1.399       .  A
C437        H440   1.068       .  S
C438        C441   1.445   1_455  S
C441        N443   1.157       .  T
C442        N444   1.156       .  T
C445        C446   1.405       .  A
C445        C450   1.413       .  A
C446        C447   1.398       .  A
C446        H451   1.084       .  S
C447        C448   1.426       .  A
C447        C454   1.446       .  S
C448        C449   1.418       .  A
C449        C450   1.407       .  A
C449        H452   1.081       .  S
C450        C453   1.443       .  S
C453        N455   1.157   1_565  T
C454        N456   1.157       .  T
C457        C458   1.405       .  A
C457        C462   1.404       .  A
C458        C459   1.410       .  A
C458        H463   1.085       .  S
C459        C460   1.429       .  A
C459        C466   1.441       .  S
C460        C461   1.429       .  A
C461        C462   1.400       .  A
C461        H464   1.078       .  S
C462        C465   1.446       .  S
C465        N467   1.157       .  T
C466        N468   1.157       .  T
C469        C470   1.401       .  A
C469        C474   1.406       .  A
C470        C471   1.398       .  A
C470        H475   1.085       .  S
C471        C472   1.438       .  A
C471        C478   1.448       .  S
C472        C473   1.428       .  A
C473        C474   1.408       .  A
C473        H476   1.070       .  S
C474        C477   1.445       .  S
C477        N479   1.157       .  T
C478        N480   1.157       .  T
C481        C482   1.399       .  A
C481        C486   1.401       .  A
C482        C483   1.408       .  A
C482        H487   1.086   1_655  S
C483        C484   1.433       .  A
C483        C490   1.435   1_655  S
C484        C485   1.430       .  A
C485        C486   1.394       .  A
C485        H488   1.085       .  S
C486        C489   1.445       .  S
C489        N491   1.157       .  T
C490        N492   1.156       .  T
C493        C494   1.401       .  A
C493        C498   1.407       .  A
C494        C495   1.400       .  A
C494        H499   1.085   1_545  S
C495        C496   1.428       .  A
C495        C502   1.444       .  S
C496        C497   1.418       .  A
C497        C498   1.403       .  A
C497        H500   1.083       .  S
C498        C501   1.444       .  S
C501        N503   1.157       .  T
C502        N504   1.157   1_545  T
C505        C506   1.389       .  A
C505        C510   1.399       .  A
C506        C507   1.395       .  A
C506        H511   1.088       .  S
C507        C508   1.432       .  A
C507        C514   1.431       .  S
C508        C509   1.432       .  A
C509        C510   1.410       .  A
C509        H512   1.082       .  S
C510        C513   1.442       .  S
C513        N515   1.157       .  T
C514        N516   1.154       .  T
C517        C518   1.393       .  A
C517        C522   1.409       .  A
C518        C519   1.406       .  A
C518        H523   1.085   1_655  S
C519        C520   1.439       .  A
C519        C526   1.439   1_655  S
C520        C521   1.420       .  A
C521        C522   1.401       .  A
C521        H524   1.078       .  S
C522        C525   1.446       .  S
C525        N527   1.157       .  T
C526        N528   1.158       .  T
