geometry optimzed in LAMMPS
_audit_creation_date              2020-11-30 
_audit_creation_method            'lammps2cif' 
_symmetry_space_group_name_H-M    'P1' 
_symmetry_Int_Tables_number       1 
_symmetry_cell_setting            triclinic 
loop_ 
_symmetry_equiv_pos_as_xyz 
  x,y,z 
_cell_length_a                    49.70300656 
_cell_length_b                    49.96619583896055 
_cell_length_c                    49.904349028310776 
_cell_angle_alpha                 90.03213658251482 
_cell_angle_beta                  89.97488261627583 
_cell_angle_gamma                 89.9851468100682 
loop_ 
_atom_site_label 
_atom_site_type_symbol 
_atom_site_fract_x 
_atom_site_fract_y 
_atom_site_fract_z 
_atom_site_charge 
O1          O  0.00302322  0.03864433  0.07941291    -0.87200
O2          O  0.00439033  0.04872191  0.42635027    -0.87400
O3          O  0.04875300  0.07464336  0.00312194    -0.89000
O4          O  0.46149559  0.07914717  0.00639441    -0.87800
O5          O  0.42719702  0.04859689  0.00306935    -0.87400
O6          O  0.07910777  0.04016755  0.99961319    -0.88700
O7          O  0.00470701  0.07889371  0.46098657    -0.87200
O8          O  0.00516803  0.07330576  0.04933384    -0.86800
Zr9        Zr  0.00372843  0.05497570  0.00390003     2.84300
O10         O  0.47503751  0.03184322  0.47414051    -1.08800
O11         O  0.02915377  0.02410105  0.02861568    -1.09500
C12         C  0.00442849  0.06377542  0.07344053     1.05900
C13         C  0.00467039  0.07281772  0.43576324     1.05900
C14         C  0.07293584  0.06530239  0.00093356     1.08800
C15         C  0.43628153  0.07271316  0.00543753     1.06600
H16         H  0.04215750  0.03894217  0.46370799     0.32200
O17         O  0.03051986  0.02785809  0.47446593    -1.29700
H18         H  0.46611129  0.03880753  0.04119120     0.31800
O19         O  0.47637852  0.02751432  0.02927849    -1.31400
O20         O  0.00244201  0.46310240  0.42033087    -0.87200
O21         O  0.99821730  0.45095024  0.07271669    -0.88700
O22         O  0.07678422  0.99744594  0.45385882    -0.87300
O23         O  0.42452080  0.00760393  0.45496135    -0.87300
O24         O  0.42562516  0.00599616  0.04382487    -0.87000
O25         O  0.07662504  0.99438401  0.04222556    -0.86800
O26         O  0.03933147  0.42114687  0.99361411    -0.87200
O27         O  0.45098181  0.42765552  0.99947038    -0.86700
O28         O  0.07402814  0.45136028  0.99577619    -0.87700
O29         O  0.42074897  0.46211437  0.00359667    -0.86900
O30         O  0.04303575  0.00297146  0.42308500    -0.87300
O31         O  0.04494772  0.99405879  0.07579721    -0.87000
O32         O  0.45748141  0.00100105  0.07676714    -0.86700
O33         O  0.45774240  0.00926718  0.42315870    -0.87100
O34         O  0.00065136  0.42832413  0.45022107    -0.87400
O35         O  0.99597670  0.42092493  0.03797131    -0.88700
Zr36       Zr  0.00138138  0.00425583  0.44641217     2.83100
Zr37       Zr  0.00018350  0.99692940  0.05427718     2.83500
Zr38       Zr  0.05453376  0.99776561  0.99880764     2.84100
Zr39       Zr  0.44719842  0.00410075  0.00071115     2.83400
Zr40       Zr  0.99699630  0.44628441  0.99588118     2.84200
O41         O  0.47269358  0.47351072  0.02648272    -1.09300
O42         O  0.02703701  0.47359866  0.47068629    -1.08800
C43         C  0.00232011  0.43790702  0.42615651     1.05900
C44         C  0.99657556  0.42691179  0.06323692     1.08500
C45         C  0.06782614  0.00039848  0.42957756     1.06100
C46         C  0.43293552  0.00945150  0.43042538     1.06400
C47         C  0.43290841  0.00479129  0.06853750     1.06000
C48         C  0.06960690  0.99342311  0.06715292     1.05600
C49         C  0.06465907  0.42722241  0.99419888     1.06000
C50         C  0.42684190  0.43704817  0.00214784     1.05500
H51         H  0.03670685  0.45683988  0.03471895     0.32200
O52         O  0.02614108  0.46948604  0.02460504    -1.30400
H53         H  0.45957211  0.46746229  0.45827776     0.32200
O54         O  0.47118599  0.47711607  0.47040609    -1.31800
O55         O  0.99927935  0.21064183  0.17167053    -0.87200
O56         O  0.00164954  0.20203274  0.32399351    -0.87400
O57         O  0.04342238  0.17380309  0.24210892    -0.89000
O58         O  0.45479239  0.17547482  0.24841225    -0.87800
O59         O  0.42406495  0.20964813  0.24936903    -0.87400
O60         O  0.07548495  0.20680076  0.24287130    -0.88700
O61         O  0.00266587  0.17153834  0.28945738    -0.87200
O62         O  0.99827378  0.17622154  0.20220289    -0.86800
Zr63       Zr  0.99912970  0.19569904  0.24707845     2.84300
O64         O  0.47272176  0.22251361  0.27642505    -1.08800
O65         O  0.02571855  0.22450852  0.22120770    -1.09500
C66         C  0.99874767  0.18548756  0.17799546     1.05900
C67         C  0.00315621  0.17789443  0.31459860     1.05900
C68         C  0.06810973  0.18216066  0.24081775     1.08800
C69         C  0.43035460  0.18463164  0.24898408     1.06600
H70         H  0.03834958  0.20917179  0.28572531     0.32200
O71         O  0.02665551  0.22092806  0.27577120    -1.29700
H72         H  0.46173502  0.21519115  0.21007344     0.31800
O73         O  0.47337949  0.22558032  0.22154080    -1.31400
O74         O  0.00249505  0.29003970  0.32897846    -0.87200
O75         O  0.99843369  0.29927634  0.17684267    -0.88700
O76         O  0.07585410  0.24535810  0.29277460    -0.87300
O77         O  0.42320489  0.25215770  0.29121523    -0.87300
O78         O  0.42428907  0.25485845  0.20849885    -0.87000
O79         O  0.07561555  0.25175272  0.20722160    -0.86800
O80         O  0.04681791  0.32520514  0.25359091    -0.87200
O81         O  0.45588464  0.32818579  0.25559727    -0.86700
O82         O  0.07738980  0.29094268  0.25144431    -0.87700
O83         O  0.42475768  0.29443072  0.25365528    -0.86900
O84         O  0.04477738  0.24656051  0.32676138    -0.87300
O85         O  0.04444924  0.25317362  0.17339089    -0.87000
O86         O  0.45531558  0.25426614  0.17460353    -0.86700
O87         O  0.45386036  0.24970366  0.32543376    -0.87100
O88         O  0.00290146  0.32441525  0.29842748    -0.87400
O89         O  0.99988911  0.32973449  0.21136595    -0.88700
Zr90       Zr  0.00055626  0.24722607  0.30504665     2.83100
Zr91       Zr  0.99947193  0.25365870  0.19526719     2.83500
Zr92       Zr  0.05304115  0.24930051  0.24981886     2.84100
Zr93       Zr  0.44766442  0.25197194  0.25023909     2.83400
Zr94       Zr  0.00121328  0.30513669  0.25352976     2.84200
O95         O  0.47406125  0.28064213  0.22465240    -1.09300
O96         O  0.02763350  0.27562167  0.27897951    -1.08800
C97         C  0.00327275  0.31518100  0.32263833     1.05900
C98         C  0.99883247  0.32350159  0.18621785     1.08500
C99         C  0.06918346  0.24531965  0.31778463     1.06100
C100        C  0.42959070  0.25161228  0.31606321     1.06400
C101        C  0.43077453  0.25464881  0.18361113     1.06000
C102        C  0.06904607  0.25268983  0.18230812     1.05600
C103        C  0.07123328  0.31594257  0.25235577     1.06000
C104        C  0.43130602  0.31929557  0.25528403     1.05500
H105        H  0.03848900  0.29013694  0.21369309     0.32200
O106        O  0.02697565  0.27872192  0.22423237    -1.30400
H107        H  0.46215327  0.28834896  0.29084964     0.32200
O108        O  0.47350306  0.27770154  0.27937514    -1.31800
O109        O  0.32602277  0.50605357  0.20812908    -0.87200
O110        O  0.17265688  0.50523070  0.21000779    -0.87400
O111        O  0.24998183  0.46281736  0.17135577    -0.89000
O112        O  0.25034793  0.04769262  0.17515862    -0.87800
O113        O  0.25196444  0.07849843  0.20934895    -0.87400
O114        O  0.25004163  0.42816389  0.20150608    -0.88700
O115        O  0.20369156  0.50557396  0.17596048    -0.87200
O116        O  0.29426239  0.50604440  0.17466286    -0.86800
Zr117      Zr  0.24926433  0.50489528  0.19616405     2.84300
O118        O  0.22365597  0.02913064  0.22466374    -1.08800
O119        O  0.27659373  0.47647020  0.22182662    -1.09500
C120        C  0.31892431  0.50683733  0.18329117     1.05900
C121        C  0.17915445  0.50558888  0.18501726     1.05900
C122        C  0.25017896  0.43763438  0.17734040     1.08800
C123        C  0.25145977  0.07191819  0.18421345     1.06600
H124        H  0.21077937  0.46597569  0.21072885     0.32200
O125        O  0.22244069  0.47631219  0.22223980    -1.29700
H126        H  0.28955573  0.04024762  0.21422177     0.31800
O127        O  0.27791141  0.02882155  0.22462909    -1.31400
O128        O  0.17478583  0.49956987  0.29605504    -0.87200
O129        O  0.32634227  0.49910490  0.29474495    -0.88700
O130        O  0.20476139  0.42582184  0.24736640    -0.87300
O131        O  0.20584854  0.07705780  0.25266118    -0.87300
O132        O  0.29570267  0.07625721  0.25537608    -0.87000
O133        O  0.29463270  0.42558745  0.24521141    -0.86800
O134        O  0.25083861  0.45299670  0.32370481    -0.87200
O135        O  0.25263634  0.03968100  0.32789195    -0.86700
O136        O  0.25024679  0.42273822  0.28910915    -0.87700
O137        O  0.25090449  0.07438087  0.29775628    -0.86900
O138        O  0.17364724  0.45955191  0.25048777    -0.87300
O139        O  0.32600864  0.45923048  0.24693670    -0.87000
O140        O  0.32707817  0.04255568  0.25521641    -0.86700
O141        O  0.17420504  0.04361888  0.25381005    -0.87100
O142        O  0.20830162  0.49584106  0.32736596    -0.87400
O143        O  0.29350027  0.49592956  0.32678330    -0.88700
Zr144      Zr  0.19652458  0.50204022  0.25199452     2.83100
Zr145      Zr  0.30346827  0.50186681  0.25093252     2.83500
Zr146      Zr  0.24979766  0.44705665  0.24684921     2.84100
Zr147      Zr  0.25082349  0.05521185  0.25271287     2.83400
Zr148      Zr  0.25066408  0.49813079  0.30426571     2.84200
O149        O  0.27770047  0.02642874  0.27887357    -1.09300
O150        O  0.22326184  0.47249893  0.27633284    -1.08800
C151        C  0.18344759  0.49685016  0.32034049     1.05900
C152        C  0.31827823  0.49677201  0.31934054     1.08500
C153        C  0.18022174  0.43466129  0.24904638     1.06100
C154        C  0.18115589  0.06847233  0.25351447     1.06400
C155        C  0.32025870  0.06743229  0.25638593     1.06000
C156        C  0.31922392  0.43439154  0.24528384     1.05600
C157        C  0.25082526  0.42882253  0.31428199     1.06000
C158        C  0.25178122  0.06488932  0.32187387     1.05500
H159        H  0.28866842  0.46059665  0.28606629     0.32200
O160        O  0.27724160  0.47229769  0.27573221    -1.30400
H161        H  0.21328113  0.03694460  0.29092203     0.32200
O162        O  0.22436588  0.02645997  0.27902607    -1.31800
O163        O  0.20159868  0.17863836  0.49868463    -0.87200
O164        O  0.21397478  0.33010299  0.50093361    -0.87400
O165        O  0.17485337  0.24966220  0.04230061    -0.89000
O166        O  0.17485279  0.25843630  0.45646945    -0.87800
O167        O  0.20617461  0.25727577  0.42271263    -0.87400
O168        O  0.20620363  0.24581343  0.07586091    -0.88700
O169        O  0.17913833  0.30012517  0.49963893    -0.87200
O170        O  0.17161218  0.21342793  0.50143724    -0.86800
Zr171      Zr  0.19771880  0.25485315  0.49917138     2.84300
O172        O  0.22632031  0.28147670  0.47351984    -1.08800
O173        O  0.22293340  0.22394216  0.02516271    -1.09500
C174        C  0.17752701  0.18822375  0.50104028     1.05900
C175        C  0.18871510  0.32419073  0.49992646     1.05900
C176        C  0.18162356  0.24662316  0.06705121     1.08800
C177        C  0.18167228  0.25868421  0.43154555     1.06600
H178        H  0.21447242  0.28839501  0.04031809     0.32200
O179        O  0.22545856  0.27741238  0.02882125    -1.29700
H180        H  0.20943052  0.21707532  0.45899476     0.31800
O181        O  0.22177178  0.22687081  0.47030358    -1.31400
O182        O  0.30041319  0.32403549  0.50112323    -0.87200
O183        O  0.28965076  0.17199091  0.49533121    -0.88700
O184        O  0.25135114  0.29023983  0.07861568    -0.87300
O185        O  0.25416400  0.29866592  0.42514935    -0.87300
O186        O  0.24725829  0.21132863  0.42056543    -0.87000
O187        O  0.24988266  0.20226519  0.07362377    -0.86800
O188        O  0.32748654  0.24409454  0.04207271    -0.87200
O189        O  0.32610968  0.24504641  0.45491499    -0.86700
O190        O  0.29619237  0.24516960  0.07579749    -0.87700
O191        O  0.29426309  0.25014112  0.42199961    -0.86900
O192        O  0.25282544  0.32441959  0.04795652    -0.87300
O193        O  0.24551040  0.17231973  0.03888699    -0.87000
O194        O  0.24528764  0.17709623  0.45115138    -0.86700
O195        O  0.25723279  0.32869784  0.45982976    -0.87100
O196        O  0.33052251  0.28932365  0.49905378    -0.87400
O197        O  0.32442309  0.20213210  0.49757091    -0.88700
Zr198      Zr  0.25554663  0.30455791  0.50226543     2.83100
Zr199      Zr  0.24718994  0.19679436  0.49609006     2.83500
Zr200      Zr  0.25114387  0.24741603  0.05461294     2.84100
Zr201      Zr  0.25055827  0.25374159  0.44443571     2.83400
Zr202      Zr  0.30489148  0.24706662  0.49834070     2.84200
O203        O  0.27587891  0.22338740  0.47000068    -1.09300
O204        O  0.27994795  0.27439590  0.02895347    -1.08800
C205        C  0.32455696  0.31459385  0.49978532     1.05900
C206        C  0.31493970  0.17804943  0.49652141     1.08500
C207        C  0.25169762  0.31538492  0.07226916     1.06100
C208        C  0.25642743  0.32269763  0.43463018     1.06400
C209        C  0.24574367  0.18628659  0.42688617     1.06000
C210        C  0.24715959  0.17831088  0.06407288     1.05600
C211        C  0.32077015  0.24401141  0.06694949     1.06000
C212        C  0.31866727  0.24646193  0.43023868     1.05500
H213        H  0.28680047  0.20783530  0.03580405     0.32200
O214        O  0.27616560  0.22020111  0.02543397    -1.30400
H215        H  0.29200399  0.28793551  0.46208767     0.32200
O216        O  0.27995597  0.27724506  0.47280954    -1.31800
C217        C  0.24566328  0.15586557  0.08348555    -0.05900
C218        C  0.23071783  0.13276729  0.07733619    -0.05900
C219        C  0.22873408  0.11169478  0.09571753    -0.24000
C220        C  0.24191341  0.11315797  0.12054651     0.18200
C221        C  0.25722511  0.13618489  0.12681472     0.15400
C222        C  0.25893319  0.15738050  0.10833360    -0.19100
C223        C  0.27046136  0.13771435  0.15156351    -0.20900
C224        C  0.26822096  0.11690923  0.17014240    -0.13500
C225        C  0.25303063  0.09393173  0.16428352     0.03200
C226        C  0.24004964  0.09207715  0.13923749    -0.25600
H227        H  0.22016668  0.13118245  0.05841109     0.08300
H228        H  0.21683450  0.09428421  0.09052415     0.11900
H229        H  0.27072262  0.17497481  0.11321824     0.11800
H230        H  0.28247240  0.15508605  0.15663061     0.11600
H231        H  0.27874704  0.11862304  0.18906724     0.12100
H232        H  0.22826739  0.07444822  0.13446625     0.14100
C233        C  0.25067583  0.33520360  0.09472707    -0.05900
C234        C  0.25090568  0.32629937  0.12151124    -0.05900
C235        C  0.25088969  0.34447933  0.14281696    -0.24000
C236        C  0.25052903  0.37208278  0.13795784     0.18200
C237        C  0.24973609  0.38145877  0.11126137     0.15400
C238        C  0.24969960  0.36302294  0.08983158    -0.19100
C239        C  0.24925513  0.40912418  0.10649734    -0.20900
C240        C  0.24961490  0.42725568  0.12790435    -0.13500
C241        C  0.25036547  0.41818743  0.15463512     0.03200
C242        C  0.25093403  0.39040257  0.15939269    -0.25600
H243        H  0.25140011  0.30513745  0.12612819     0.08300
H244        H  0.25133369  0.33690011  0.16315262     0.11900
H245        H  0.24917784  0.37038007  0.06941165     0.11800
H246        H  0.24863460  0.41677210  0.08619401     0.11600
H247        H  0.24918468  0.44845728  0.12343769     0.12100
H248        H  0.25159813  0.38294095  0.17977157     0.14100
C249        C  0.25206046  0.40612593  0.33357293    -0.05900
C250        C  0.25052268  0.37955009  0.32421857    -0.05900
C251        C  0.25211185  0.35797480  0.34193182    -0.24000
C252        C  0.25515847  0.36241622  0.36946874     0.18200
C253        C  0.25711674  0.38893054  0.37916691     0.15400
C254        C  0.25551651  0.41059178  0.36122953    -0.19100
C255        C  0.26037574  0.39333458  0.40669935    -0.20900
C256        C  0.26074777  0.37178454  0.42453569    -0.13500
C257        C  0.25792419  0.34529375  0.41526237     0.03200
C258        C  0.25572645  0.34080115  0.38748902    -0.25600
H259        H  0.24802286  0.37531278  0.30308577     0.08300
H260        H  0.25071728  0.33779660  0.33408269     0.11900
H261        H  0.25697796  0.43086078  0.36884328     0.11800
H262        H  0.26220591  0.41348899  0.41451401     0.11600
H263        H  0.26283044  0.37599214  0.44572056     0.12100
H264        H  0.25381946  0.32056639  0.37987980     0.14100
C265        C  0.25119684  0.08435948  0.34446708    -0.05900
C266        C  0.25277793  0.07535199  0.37115185    -0.05900
C267        C  0.25130076  0.09336670  0.39253599    -0.24000
C268        C  0.24831645  0.12083485  0.38776362     0.18200
C269        C  0.24679844  0.13022753  0.36110445     0.15400
C270        C  0.24825069  0.11200642  0.33967042    -0.19100
C271        C  0.24393592  0.15771420  0.35633161    -0.20900
C272        C  0.24306355  0.17575909  0.37771862    -0.13500
C273        C  0.24495000  0.16673977  0.40439927     0.03200
C274        C  0.24719545  0.13906455  0.40920675    -0.25600
H275        H  0.25504129  0.05426716  0.37560654     0.08300
H276        H  0.25254511  0.08578794  0.41283731     0.11900
H277        H  0.24693477  0.11940555  0.31929865     0.11800
H278        H  0.24264632  0.16530940  0.33603678     0.11600
H279        H  0.24116706  0.19688465  0.37326562     0.12100
H280        H  0.24867184  0.13169526  0.42957754     0.14100
C281        C  0.40728865  0.16560216  0.24930132    -0.05900
C282        C  0.38152627  0.17466301  0.24168877    -0.05900
C283        C  0.35923848  0.15767745  0.24249147    -0.24000
C284        C  0.36205510  0.13116380  0.25102146     0.18200
C285        C  0.38767948  0.12181483  0.25914335     0.15400
C286        C  0.41016905  0.13900836  0.25810492    -0.19100
C287        C  0.39036805  0.09534800  0.26796119    -0.20900
C288        C  0.36823194  0.07808944  0.26772496    -0.13500
C289        C  0.34279997  0.08688125  0.25880356     0.03200
C290        C  0.33977257  0.11374497  0.25105191    -0.25600
H291        H  0.37854124  0.19502031  0.23486280     0.08300
H292        H  0.33979764  0.16527731  0.23627318     0.11900
H293        H  0.42974462  0.13180014  0.26439502     0.11800
H294        H  0.40969295  0.08783690  0.27462518     0.11600
H295        H  0.37115551  0.05762936  0.27427401     0.12100
H296        H  0.32035492  0.12086410  0.24419433     0.14100
C297        C  0.34201211  0.41515154  0.24375077    -0.05900
C298        C  0.36752351  0.42437413  0.23552406    -0.05900
C299        C  0.39006995  0.40774540  0.23642909    -0.24000
C300        C  0.38778343  0.38146858  0.24577012     0.18200
C301        C  0.36217682  0.37165359  0.25345457     0.15400
C302        C  0.33938982  0.38843486  0.25216073    -0.19100
C303        C  0.35991412  0.34533869  0.26271993    -0.20900
C304        C  0.38261777  0.32891380  0.26410998    -0.13500
C305        C  0.40823950  0.33831354  0.25633247     0.03200
C306        C  0.41066388  0.36486384  0.24744768    -0.25600
H307        H  0.37019909  0.44475542  0.22864210     0.08300
H308        H  0.40939528  0.41560739  0.23018511     0.11900
H309        H  0.31993507  0.38102226  0.25859991     0.11800
H310        H  0.34055713  0.33736777  0.26874131     0.11600
H311        H  0.37996743  0.30854074  0.27093105     0.12100
H312        H  0.43011978  0.37234208  0.24110428     0.14100
C313        C  0.15842266  0.08792457  0.25411462    -0.05900
C314        C  0.13467864  0.08105595  0.26793457    -0.05900
C315        C  0.11189833  0.09741344  0.26689788    -0.24000
C316        C  0.11218722  0.12108288  0.25192379     0.18200
C317        C  0.13589789  0.12844517  0.23801023     0.15400
C318        C  0.15893975  0.11188489  0.23927608    -0.19100
C319        C  0.13611737  0.15233715  0.22325082    -0.20900
C320        C  0.11360051  0.16922852  0.22328391    -0.13500
C321        C  0.09016005  0.16234714  0.23759484     0.03200
C322        C  0.08936852  0.13780906  0.25124899    -0.25600
H323        H  0.13366469  0.06275489  0.27952420     0.08300
H324        H  0.09401053  0.09150140  0.27781860     0.11900
H325        H  0.17693322  0.11725959  0.22824515     0.11800
H326        H  0.15393385  0.15831090  0.21225694     0.11600
H327        H  0.11467242  0.18801270  0.21249370     0.12100
H328        H  0.07152653  0.13242687  0.26253495     0.14100
C329        C  0.09435273  0.33490157  0.25116081    -0.05900
C330        C  0.12046137  0.32521434  0.24552581    -0.05900
C331        C  0.14241807  0.34258233  0.24365282    -0.24000
C332        C  0.13891369  0.37010925  0.24743557     0.18200
C333        C  0.11285110  0.38011430  0.25301987     0.15400
C334        C  0.09079800  0.36253560  0.25487235    -0.19100
C335        C  0.10922651  0.40760087  0.25665989    -0.20900
C336        C  0.13110710  0.42498596  0.25504072    -0.13500
C337        C  0.15732478  0.41540017  0.24981634     0.03200
C338        C  0.16099909  0.38776215  0.24586721    -0.25600
H339        H  0.12402267  0.30407570  0.24229011     0.08300
H340        H  0.16214333  0.33444815  0.23923394     0.11900
H341        H  0.07093207  0.37039297  0.25918583     0.11800
H342        H  0.08944422  0.41569795  0.26088782     0.11600
H343        H  0.12736084  0.44609849  0.25821445     0.12100
H344        H  0.18092629  0.37998542  0.24169155     0.14100
C345        C  0.40769005  0.25403597  0.16473741    -0.05900
C346        C  0.38133109  0.25799035  0.17460319    -0.05900
C347        C  0.35902033  0.25585308  0.15781832    -0.24000
C348        C  0.36244025  0.24981615  0.13069664     0.18200
C349        C  0.38873704  0.24579053  0.12050177     0.15400
C350        C  0.41118043  0.24794649  0.13752167    -0.19100
C351        C  0.39216491  0.23974425  0.09339003    -0.20900
C352        C  0.36993178  0.23840186  0.07642346    -0.13500
C353        C  0.34363169  0.24303157  0.08612359     0.03200
C354        C  0.34004607  0.24823086  0.11353425    -0.25600
H355        H  0.37778677  0.26265265  0.19550496     0.08300
H356        H  0.33909396  0.25900313  0.16606879     0.11900
H357        H  0.43122963  0.24455727  0.12965878     0.11800
H358        H  0.41208309  0.23641226  0.08519252     0.11600
H359        H  0.37351865  0.23408413  0.05545751     0.12100
H360        H  0.32001848  0.25182126  0.12136116     0.14100
C361        C  0.15885921  0.24395820  0.08623072    -0.05900
C362        C  0.13374684  0.23469582  0.07693445    -0.05900
C363        C  0.11121314  0.23424236  0.09368100    -0.24000
C364        C  0.11310703  0.24335218  0.12013089     0.18200
C365        C  0.13838585  0.25203083  0.12997212     0.15400
C366        C  0.16115528  0.25201760  0.11309761    -0.19100
C367        C  0.14034744  0.26110890  0.15639647    -0.20900
C368        C  0.11762760  0.26171228  0.17283439    -0.13500
C369        C  0.09224158  0.25325589  0.16337155     0.03200
C370        C  0.09016208  0.24409781  0.13681630    -0.25600
H371        H  0.13138170  0.22811384  0.05641540     0.08300
H372        H  0.09217954  0.22724616  0.08575100     0.11900
H373        H  0.18031260  0.25923104  0.12055754     0.11800
H374        H  0.15945580  0.26786005  0.16437022     0.11600
H375        H  0.12001725  0.26891501  0.19317202     0.12100
H376        H  0.07091383  0.23720021  0.12930291     0.14100
C377        C  0.09165538  0.24385757  0.33722250    -0.05900
C378        C  0.11541201  0.23027929  0.33013048    -0.05900
C379        C  0.13786940  0.23063909  0.34694536    -0.24000
C380        C  0.13720386  0.24492915  0.37108777     0.18200
C381        C  0.11324007  0.25826220  0.37871209     0.15400
C382        C  0.09049570  0.25737546  0.36190543    -0.19100
C383        C  0.11259043  0.27258426  0.40283590    -0.20900
C384        C  0.13524858  0.27340205  0.41937863    -0.13500
C385        C  0.15912138  0.26004610  0.41215534     0.03200
C386        C  0.16005163  0.24604788  0.38774449    -0.25600
H387        H  0.11669912  0.21951106  0.31132568     0.08300
H388        H  0.15590710  0.22008668  0.34083892     0.11900
H389        H  0.07232935  0.26801807  0.36752359     0.11800
H390        H  0.09450657  0.28302176  0.40901412     0.11600
H391        H  0.13402445  0.28433500  0.43809494     0.12100
H392        H  0.17819833  0.23536642  0.38214622     0.14100
C393        C  0.40681474  0.25356726  0.33461820    -0.05900
C394        C  0.38371330  0.26807569  0.32710049    -0.05900
C395        C  0.36121440  0.26893169  0.34375187    -0.24000
C396        C  0.36143676  0.25513206  0.36813140     0.18200
C397        C  0.38453036  0.24022153  0.37555444     0.15400
C398        C  0.40712108  0.23970752  0.35886164    -0.19100
C399        C  0.38480619  0.22619344  0.39971428    -0.20900
C400        C  0.36294008  0.22782980  0.41699746    -0.13500
C401        C  0.34025366  0.24327311  0.41032305     0.03200
C402        C  0.33926808  0.25638435  0.38549882    -0.25600
H403        H  0.38309818  0.27882404  0.30829641     0.08300
H404        H  0.34375885  0.28039893  0.33761676     0.11900
H405        H  0.42470572  0.22813937  0.36446038     0.11800
H406        H  0.40214527  0.21438383  0.40550119     0.11600
H407        H  0.36390159  0.21716542  0.43586413     0.12100
H408        H  0.32181984  0.26829688  0.38020773     0.14100
C409        C  0.34554932  0.33433243  0.00397757    -0.05900
C410        C  0.37240001  0.32563876  0.00583596    -0.05900
C411        C  0.39350470  0.34405553  0.00650457    -0.24000
C412        C  0.38824073  0.37155643  0.00515484     0.18200
C413        C  0.36300156  0.38025412  0.49218884     0.15400
C414        C  0.34225865  0.36110205  0.49115443    -0.19100
C415        C  0.35833503  0.40695601  0.48471736    -0.20900
C416        C  0.37897425  0.42594934  0.48647201    -0.13500
C417        C  0.40429947  0.41764686  0.00332705     0.03200
C418        C  0.40945339  0.39004950  0.00526951    -0.25600
H419        H  0.37717288  0.30452174  0.00686238     0.08300
H420        H  0.41398512  0.33675859  0.00793772     0.11900
H421        H  0.32244622  0.36703704  0.48428210     0.11800
H422        H  0.33871112  0.41317292  0.47760231     0.11600
H423        H  0.37484945  0.44636669  0.48044437     0.12100
H424        H  0.42998882  0.38286433  0.00660768     0.14100
C425        C  0.33475640  0.15562034  0.99670225    -0.05900
C426        C  0.32793199  0.13104307  0.48477194    -0.05900
C427        C  0.34636560  0.10991320  0.48446356    -0.24000
C428        C  0.37172429  0.11281567  0.49641841     0.18200
C429        C  0.37842833  0.13716675  0.50919631     0.15400
C430        C  0.36041217  0.15867603  0.00824487    -0.19100
C431        C  0.40446425  0.14034178  0.01968349    -0.20900
C432        C  0.42302674  0.11931032  0.01885705    -0.13500
C433        C  0.41621106  0.09467132  0.00704390     0.03200
C434        C  0.39060144  0.09188774  0.49544130    -0.25600
H435        H  0.30863687  0.12833034  0.47506279     0.08300
H436        H  0.34087244  0.09137103  0.47461608     0.11900
H437        H  0.36599991  0.17761359  0.01727932     0.11800
H438        H  0.41030068  0.15911822  0.02886572     0.11600
H439        H  0.44277099  0.12232961  0.02751970     0.12100
H440        H  0.38542181  0.07338971  0.48531794     0.14100
C441        C  0.08449946  0.40479396  0.99351553    -0.05900
C442        C  0.07651663  0.37878685  0.98606320    -0.05900
C443        C  0.09495231  0.35758210  0.98609861    -0.24000
C444        C  0.12177858  0.36186578  0.99367410     0.18200
C445        C  0.13230451  0.38974782  0.49740073     0.15400
C446        C  0.11372933  0.41098688  0.49673981    -0.19100
C447        C  0.16006747  0.39464871  0.49627136    -0.20900
C448        C  0.17835573  0.37338450  0.49708167    -0.13500
C449        C  0.16736560  0.34506105  0.00130586     0.03200
C450        C  0.14038483  0.34063774  0.99389546    -0.25600
H451        H  0.05595266  0.37479066  0.98013387     0.08300
H452        H  0.08819643  0.33780528  0.98024354     0.11900
H453        H  0.12105720  0.43136371  0.49527757     0.11800
H454        H  0.16765364  0.41492698  0.49482687     0.11600
H455        H  0.19965611  0.37786252  0.49619441     0.12100
H456        H  0.13389163  0.32076119  0.98805423     0.14100
C457        C  0.09534766  0.08485787  0.99908269    -0.05900
C458        C  0.12018216  0.07895715  0.48737374    -0.05900
C459        C  0.14079764  0.09781000  0.48518407    -0.24000
C460        C  0.13752310  0.12364312  0.49563153     0.18200
C461        C  0.11378120  0.12953117  0.00694676     0.15400
C462        C  0.09259641  0.11099895  0.00926970    -0.19100
C463        C  0.11116851  0.15555036  0.01715593    -0.20900
C464        C  0.13206719  0.17404812  0.01416216    -0.13500
C465        C  0.15615986  0.16685141  0.00122749     0.03200
C466        C  0.15837168  0.14247027  0.49358421    -0.25600
H467        H  0.12322693  0.05925668  0.47883364     0.08300
H468        H  0.15934262  0.09217143  0.47525114     0.11900
H469        H  0.07405906  0.11688271  0.01910281     0.11800
H470        H  0.09290493  0.16165587  0.02733223     0.11600
H471        H  0.12946576  0.19397415  0.02224188     0.12100
H472        H  0.17706142  0.13680225  0.48391824     0.14100
C473        C  0.33863742  0.99213776  0.34139368    -0.05900
C474        C  0.33171566  0.48153330  0.36499556    -0.05900
C475        C  0.34880462  0.48222426  0.38714807    -0.24000
C476        C  0.37286890  0.49668801  0.38606014     0.18200
C477        C  0.37980927  0.00784689  0.36272128     0.15400
C478        C  0.36296947  0.00633571  0.34012214    -0.19100
C479        C  0.40347155  0.02302643  0.36199321    -0.20900
C480        C  0.42003455  0.02448702  0.38454052    -0.13500
C481        C  0.41321630  0.01093364  0.40833012     0.03200
C482        C  0.38962000  0.49827346  0.40867771    -0.25600
H483        H  0.31292082  0.47068076  0.36665974     0.08300
H484        H  0.34294736  0.47183949  0.40529614     0.11900
H485        H  0.36813481  0.01723138  0.32205405     0.11800
H486        H  0.40930034  0.03356539  0.34392615     0.11600
H487        H  0.43851517  0.03591547  0.38325199     0.12100
H488        H  0.38408340  0.48791043  0.42695266     0.14100
C489        C  0.16513838  0.99566754  0.34245086    -0.05900
C490        C  0.17339993  0.98358929  0.36659340    -0.05900
C491        C  0.15604142  0.98188132  0.38837846    -0.24000
C492        C  0.13010725  0.99242105  0.38659107     0.18200
C493        C  0.12305686  0.50889113  0.36470220     0.15400
C494        C  0.14043803  0.51005079  0.34258720    -0.19100
C495        C  0.09977713  0.52459279  0.36542233    -0.20900
C496        C  0.08246436  0.52301355  0.38732507    -0.13500
C497        C  0.08674109  0.00168084  0.40683503     0.03200
C498        C  0.11267196  0.99098302  0.40863196    -0.25600
H499        H  0.19337840  0.97516877  0.36862952     0.08300
H500        H  0.16294615  0.97237136  0.40663570     0.11900
H501        H  0.13615063  0.52348621  0.32606386     0.11800
H502        H  0.09483305  0.53787775  0.34898215     0.11600
H503        H  0.06437319  0.53512762  0.38727724     0.12100
H504        H  0.11920068  0.98144855  0.42702778     0.14100
C505        C  0.15817239  0.00607004  0.16394265    -0.05900
C506        C  0.13313962  0.01652636  0.17214767    -0.05900
C507        C  0.11066709  0.01555731  0.15530698    -0.24000
C508        C  0.11254824  0.00393379  0.12982456     0.18200
C509        C  0.13750880  0.49328689  0.12200236     0.15400
C510        C  0.15978929  0.49617730  0.13922932    -0.19100
C511        C  0.14100312  0.48436388  0.09563553    -0.20900
C512        C  0.11902748  0.48270848  0.07822521    -0.13500
C513        C  0.09212358  0.99183949  0.08685002     0.03200
C514        C  0.08991254  0.00280917  0.11275028    -0.25600
H515        H  0.13084307  0.02536389  0.19184330     0.08300
H516        H  0.09174139  0.02373766  0.16233219     0.11900
H517        H  0.17975864  0.49108387  0.13212696     0.11800
H518        H  0.16084866  0.47918070  0.08827403     0.11600
H519        H  0.12264717  0.47635498  0.05778881     0.12100
H520        H  0.07092325  0.01130555  0.11924124     0.14100
C521        C  0.41069872  0.00849953  0.08819530    -0.05900
C522        C  0.38890990  0.47763180  0.08429003    -0.05900
C523        C  0.36614049  0.47726447  0.10077057    -0.24000
C524        C  0.36521559  0.49300614  0.12398593     0.18200
C525        C  0.38930729  0.99911693  0.13115259     0.15400
C526        C  0.41189789  0.99774734  0.11412215    -0.19100
C527        C  0.39011982  0.98752626  0.15661005    -0.20900
C528        C  0.36753487  0.98832543  0.17318017    -0.13500
C529        C  0.34345036  0.00067103  0.16477029     0.03200
C530        C  0.34202385  0.49332719  0.14033625    -0.25600
H531        H  0.38869591  0.46593892  0.06599223     0.08300
H532        H  0.34904795  0.46507567  0.09504914     0.11900
H533        H  0.42995863  0.98749554  0.12066574     0.11800
H534        H  0.40820697  0.97771353  0.16370685     0.11600
H535        H  0.36893117  0.97903267  0.19273389     0.12100
H536        H  0.32489209  0.48086575  0.13532130     0.14100
C537        C  0.00423920  0.09530404  0.41627744    -0.05900
C538        C  0.49864640  0.12245443  0.42586132    -0.05900
C539        C  0.49753638  0.14394977  0.40802735    -0.24000
C540        C  0.50033159  0.13963548  0.38044991     0.18200
C541        C  0.01141813  0.11321849  0.37118726     0.15400
C542        C  0.01307683  0.09192303  0.38962374    -0.19100
C543        C  0.02028875  0.11015427  0.34465735    -0.20900
C544        C  0.01765730  0.13119811  0.32632788    -0.13500
C545        C  0.00614899  0.15573906  0.33415469     0.03200
C546        C  0.49887075  0.16114664  0.36239272    -0.25600
H547        H  0.49625307  0.12653040  0.44703923     0.08300
H548        H  0.49440673  0.16395443  0.41582935     0.11900
H549        H  0.02119995  0.07280913  0.38324918     0.11800
H550        H  0.02911107  0.09145092  0.33803454     0.10800
H551        H  0.02474391  0.12828801  0.30600167     0.12100
H552        H  0.49530316  0.18118818  0.36993430     0.14100
C553        C  0.00414543  0.41851119  0.40353417    -0.05900
C554        C  0.00362455  0.42735070  0.37672063    -0.05900
C555        C  0.00401416  0.40898804  0.35552213    -0.24000
C556        C  0.00497061  0.38140532  0.36067094     0.18200
C557        C  0.50215983  0.37204684  0.38902105     0.15400
C558        C  0.50149279  0.39045599  0.41025114    -0.19100
C559        C  0.50105122  0.34448744  0.39402512    -0.20900
C560        C  0.50099474  0.32629011  0.37276995    -0.13500
C561        C  0.00471842  0.33500350  0.34487068     0.03200
C562        C  0.00412351  0.36273787  0.33958610    -0.25600
H563        H  0.00245975  0.44848345  0.37206050     0.08300
H564        H  0.00316370  0.41635523  0.33511748     0.11900
H565        H  0.50014192  0.38311897  0.43064648     0.11800
H566        H  0.50004009  0.33699348  0.41437687     0.11600
H567        H  0.49996921  0.30513812  0.37736408     0.12100
H568        H  0.00269847  0.36986660  0.31912607     0.14100
C569        C  0.99537684  0.40461316  0.08302778    -0.05900
C570        C  0.49515856  0.37858016  0.07461149    -0.05900
C571        C  0.49383287  0.35750271  0.09296336    -0.24000
C572        C  0.49609479  0.36246953  0.12050969     0.18200
C573        C  0.99925937  0.38853850  0.12923293     0.15400
C574        C  0.00023907  0.40947992  0.11045354    -0.19100
C575        C  0.00425693  0.39340199  0.15646027    -0.20900
C576        C  0.00373566  0.37237562  0.17495007    -0.13500
C577        C  0.99832271  0.34597090  0.16661278     0.03200
C578        C  0.49517866  0.34130698  0.13902796    -0.25600
H579        H  0.49324134  0.37402718  0.05348344     0.08300
H580        H  0.49106613  0.33729100  0.08558464     0.11900
H581        H  0.00501276  0.42953324  0.11724392     0.11800
H582        H  0.00876779  0.41344674  0.16344362     0.11600
H583        H  0.00798094  0.37679969  0.19577015     0.12100
H584        H  0.49261386  0.32099711  0.13183189     0.14100
C585        C  0.00469756  0.08317523  0.09602511    -0.05900
C586        C  0.00799971  0.07431564  0.12260713    -0.05900
C587        C  0.00742482  0.09245467  0.14396442    -0.24000
C588        C  0.00340057  0.11982954  0.13921582     0.18200
C589        C  0.50351001  0.12985444  0.11263632     0.15400
C590        C  0.50470360  0.11170993  0.09109841    -0.19100
C591        C  0.50012465  0.15728640  0.10796439    -0.20900
C592        C  0.49880072  0.17527211  0.12937802    -0.13500
C593        C  0.99878354  0.16576497  0.15564758     0.03200
C594        C  0.00271773  0.13823953  0.16054584    -0.25600
H595        H  0.01103648  0.05329949  0.12695994     0.08300
H596        H  0.01004121  0.08504543  0.16419985     0.11900
H597        H  0.50300195  0.11915937  0.07077393     0.11800
H598        H  0.49847558  0.16487752  0.08769670     0.11600
H599        H  0.49617292  0.19631769  0.12493991     0.12100
H600        H  0.00551473  0.13112808  0.18087239     0.14100
O601        O  0.00562583  0.03906288  0.57893793    -0.87200
O602        O  0.00242923  0.04957475  0.92666609    -0.87400
O603        O  0.04956358  0.07452809  0.50330135    -0.89000
O604        O  0.46170807  0.07933582  0.50612823    -0.87800
O605        O  0.42730609  0.04900199  0.50188555    -0.87400
O606        O  0.08024510  0.04027780  0.50007926    -0.88700
O607        O  0.00348321  0.07950003  0.96148025    -0.87200
O608        O  0.00763048  0.07358643  0.54873658    -0.86800
Zr609      Zr  0.00498797  0.05453825  0.50356732     2.84300
O610        O  0.47477513  0.03191172  0.97519374    -1.08800
O611        O  0.03042993  0.02379316  0.52847622    -1.09500
C612        C  0.00740883  0.06416419  0.57290373     1.05900
C613        C  0.00327801  0.07363899  0.93621717     1.05900
C614        C  0.07380391  0.06542829  0.50143439     1.08800
C615        C  0.43646986  0.07304388  0.50480876     1.06600
H616        H  0.04019951  0.03953022  0.96380108     0.32200
O617        O  0.02866709  0.02830842  0.97451576    -1.29700
H618        H  0.46506131  0.03853925  0.54024499     0.31800
O619        O  0.47556870  0.02742950  0.52835323    -1.31400
O620        O  0.99971905  0.46377985  0.92029502    -0.87200
O621        O  0.99627833  0.45157358  0.57259063    -0.88700
O622        O  0.07499582  0.00002739  0.95372026    -0.87300
O623        O  0.42345764  0.00646038  0.95765407    -0.87300
O624        O  0.42422692  0.00313707  0.54187904    -0.87000
O625        O  0.07825920  0.99202225  0.54227437    -0.86800
O626        O  0.04069954  0.42217793  0.49662275    -0.87200
O627        O  0.45128628  0.42893066  0.49623968    -0.86700
O628        O  0.07531263  0.45250920  0.49769467    -0.87700
O629        O  0.42075547  0.46340781  0.49660181    -0.86900
O630        O  0.04115411  0.00501509  0.92294456    -0.87300
O631        O  0.04618726  0.99208140  0.57553078    -0.87000
O632        O  0.45555608  0.99900904  0.57540215    -0.86700
O633        O  0.45621252  0.00886540  0.92544017    -0.87100
O634        O  0.99680633  0.42877195  0.94993064    -0.87400
O635        O  0.99529694  0.42147783  0.53783516    -0.88700
Zr636      Zr  0.99949415  0.00483801  0.94637608     2.83100
Zr637      Zr  0.00119384  0.99713882  0.55428263     2.83500
Zr638      Zr  0.05611223  0.99720929  0.49904244     2.84100
Zr639      Zr  0.44678345  0.00423640  0.49903446     2.83400
Zr640      Zr  0.99792570  0.44661056  0.49577938     2.84200
O641        O  0.47119255  0.47466888  0.52437820    -1.09300
O642        O  0.02538852  0.47371973  0.97051202    -1.08800
C643        C  0.99861904  0.43859186  0.92596202     1.05900
C644        C  0.99507935  0.42752520  0.56307206     1.08500
C645        C  0.06601205  0.00319220  0.92948810     1.06100
C646        C  0.43147321  0.00853712  0.93306538     1.06400
C647        C  0.43087644  0.00121861  0.56676477     1.06000
C648        C  0.07094908  0.99067557  0.56710327     1.05600
C649        C  0.06600570  0.42834531  0.49727026     1.06000
C650        C  0.42701855  0.43829053  0.49623381     1.05500
H651        H  0.03623141  0.45773207  0.53542316     0.32200
O652        O  0.02594776  0.47030449  0.52494706    -1.30400
H653        H  0.45629870  0.46620552  0.96165264     0.32200
O654        O  0.46869611  0.47617091  0.97270301    -1.31800
O655        O  0.00227457  0.21057059  0.67206211    -0.87200
O656        O  0.99896971  0.20392659  0.82509687    -0.87400
O657        O  0.04400854  0.17404607  0.74881556    -0.89000
O658        O  0.45303630  0.17517427  0.74713947    -0.87800
O659        O  0.42252400  0.20956576  0.74746434    -0.87400
O660        O  0.07517565  0.20759346  0.75205652    -0.88700
O661        O  0.99919123  0.17343825  0.79060639    -0.87200
O662        O  0.00088992  0.17627172  0.70270037    -0.86800
Zr663      Zr  0.99961960  0.19628582  0.74758667     2.84300
O664        O  0.47242452  0.22204238  0.77510856    -1.08800
O665        O  0.02715354  0.22483734  0.72225532    -1.09500
C666        C  0.00195403  0.18544730  0.67842956     1.05900
C667        C  0.99934573  0.17973486  0.81573497     1.05900
C668        C  0.06850821  0.18276960  0.75099101     1.08800
C669        C  0.42864395  0.18452146  0.74744024     1.06600
H670        H  0.03685002  0.21071420  0.78775059     0.32200
O671        O  0.02577685  0.22226181  0.77690048    -1.29700
H672        H  0.46109891  0.21449235  0.70854339     0.31800
O673        O  0.47274239  0.22481124  0.72007347    -1.31400
O674        O  0.99814219  0.29184174  0.82846414    -0.87200
O675        O  0.00026677  0.29896832  0.67589416    -0.88700
O676        O  0.07487883  0.24694056  0.79514819    -0.87300
O677        O  0.42400124  0.25001925  0.79111610    -0.87300
O678        O  0.42442186  0.25337878  0.70619005    -0.87000
O679        O  0.07741636  0.24899466  0.70952198    -0.86800
O680        O  0.04638340  0.32606588  0.75534952    -0.87200
O681        O  0.45619518  0.32714439  0.75272930    -0.86700
O682        O  0.07725988  0.29193482  0.75477906    -0.87700
O683        O  0.42466220  0.29368163  0.75166909    -0.86900
O684        O  0.04298039  0.24801223  0.82836811    -0.87300
O685        O  0.04710723  0.25256745  0.67508689    -0.87000
O686        O  0.45571512  0.25268241  0.67247769    -0.86700
O687        O  0.45482330  0.24756793  0.82518588    -0.87100
O688        O  0.00006842  0.32583338  0.79747509    -0.87400
O689        O  0.00105743  0.32967257  0.71023297    -0.88700
Zr690      Zr  0.99911761  0.24870379  0.80521911     2.83100
Zr691      Zr  0.00151785  0.25368252  0.69521761     2.83500
Zr692      Zr  0.05314144  0.25030190  0.75163002     2.84100
Zr693      Zr  0.44716352  0.25120159  0.74882893     2.83400
Zr694      Zr  0.00117130  0.30579569  0.75285122     2.84200
O695        O  0.47376549  0.27992006  0.72324353    -1.09300
O696        O  0.02691384  0.27693968  0.77972383    -1.08800
C697        C  0.99862415  0.31688161  0.82175418     1.05900
C698        C  0.00036102  0.32325966  0.68511453     1.08500
C699        C  0.06765320  0.24676255  0.81998883     1.06100
C700        C  0.43048207  0.24897390  0.81603851     1.06400
C701        C  0.43116435  0.25297425  0.68128029     1.06000
C702        C  0.07142148  0.25028435  0.68441580     1.05600
C703        C  0.07078380  0.31683394  0.75590269     1.06000
C704        C  0.43154468  0.31846592  0.75265181     1.05500
H705        H  0.04011907  0.29058424  0.71435536     0.32200
O706        O  0.02816355  0.27933328  0.72459546    -1.30400
H707        H  0.46217075  0.28727090  0.78919238     0.32200
O708        O  0.47361191  0.27665170  0.77777924    -1.31800
O709        O  0.32441693  0.50496413  0.70499767    -0.87200
O710        O  0.17246869  0.50122713  0.71142853    -0.87400
O711        O  0.24989684  0.46087221  0.67183324    -0.89000
O712        O  0.24948743  0.04747668  0.67608937    -0.87800
O713        O  0.24967777  0.07819608  0.71035734    -0.87400
O714        O  0.25178591  0.42614235  0.70185007    -0.88700
O715        O  0.20262175  0.50262351  0.67662006    -0.87200
O716        O  0.29186246  0.50463673  0.67242038    -0.86800
Zr717      Zr  0.24817549  0.50329758  0.69607345     2.84300
O718        O  0.22288507  0.02826293  0.72550793    -1.08800
O719        O  0.27642683  0.47503696  0.72077845    -1.09500
C720        C  0.31670474  0.50562762  0.68035106     1.05900
C721        C  0.17836732  0.50194867  0.68622421     1.05900
C722        C  0.25137629  0.43571085  0.67776392     1.08800
C723        C  0.24962030  0.07175526  0.68513581     1.06600
H724        H  0.21124651  0.46332605  0.71154170     0.32200
O725        O  0.22285372  0.47390878  0.72287231    -1.29700
H726        H  0.28872839  0.04084207  0.71623287     0.31800
O727        O  0.27722168  0.02909317  0.72642658    -1.31400
O728        O  0.17716245  0.49653681  0.79860404    -0.87200
O729        O  0.32854599  0.49548295  0.79059193    -0.88700
O730        O  0.20683465  0.42308086  0.74737378    -0.87300
O731        O  0.20317154  0.07495377  0.75482542    -0.87300
O732        O  0.29367360  0.07656231  0.75761000    -0.87000
O733        O  0.29608054  0.42459671  0.74339378    -0.86800
O734        O  0.25491326  0.45073787  0.82329131    -0.87200
O735        O  0.24824974  0.03933691  0.82927282    -0.86700
O736        O  0.25416279  0.42036691  0.78878323    -0.87700
O737        O  0.24800604  0.07391934  0.79894297    -0.86900
O738        O  0.17481611  0.45604129  0.75061480    -0.87300
O739        O  0.32697776  0.45867439  0.74250905    -0.87000
O740        O  0.32573037  0.04346460  0.75849600    -0.86700
O741        O  0.17260186  0.04064304  0.75346273    -0.87100
O742        O  0.21156722  0.49438623  0.82905058    -0.87400
O743        O  0.29773138  0.49447551  0.82471033    -0.88700
Zr744      Zr  0.19708523  0.49864871  0.75349699     2.83100
Zr745      Zr  0.30383096  0.50082481  0.74865933     2.83500
Zr746      Zr  0.25123217  0.44520434  0.74691937     2.84100
Zr747      Zr  0.24905041  0.05490708  0.75393500     2.83400
Zr748      Zr  0.25327872  0.49610209  0.80452260     2.84200
O749        O  0.27606235  0.02662382  0.78046685    -1.09300
O750        O  0.22512829  0.46981493  0.77751697    -1.08800
C751        C  0.18645367  0.49525300  0.82283751     1.05900
C752        C  0.32204816  0.49407655  0.81563160     1.08500
C753        C  0.18214217  0.43145450  0.74831497     1.06100
C754        C  0.17871256  0.06559630  0.75444016     1.06400
C755        C  0.31837140  0.06818961  0.75933840     1.06000
C756        C  0.32044731  0.43372223  0.74174176     1.05600
C757        C  0.25526553  0.42655085  0.81390950     1.06000
C758        C  0.24762879  0.06447503  0.82308034     1.05500
H759        H  0.29114362  0.45927623  0.78436762     0.32200
O760        O  0.27913687  0.47093415  0.77466569    -1.30400
H761        H  0.21111547  0.03584367  0.79141672     0.32200
O762        O  0.22273147  0.02565761  0.77976861    -1.31800
O763        O  0.20265070  0.17705237  0.99691136    -0.87200
O764        O  0.21231560  0.32901863  0.00179955    -0.87400
O765        O  0.17491655  0.25529636  0.54151767    -0.89000
O766        O  0.17524018  0.25916312  0.95671026    -0.87800
O767        O  0.20698225  0.25785618  0.92326269    -0.87400
O768        O  0.20607799  0.24964001  0.57490641    -0.88700
O769        O  0.17787175  0.29854161  0.00123937    -0.87200
O770        O  0.17237939  0.21159740  0.99958127    -0.86800
Zr771      Zr  0.19748100  0.25366436  0.99957591     2.84300
O772        O  0.22625976  0.28031093  0.97411975    -1.08800
O773        O  0.22248625  0.22441717  0.52481788    -1.09500
C774        C  0.17849924  0.18644238  0.99890137     1.05900
C775        C  0.18711383  0.32274119  0.00142388     1.05900
C776        C  0.18156429  0.25283098  0.56629014     1.08800
C777        C  0.18238422  0.25982984  0.93187339     1.06600
H778        H  0.21595560  0.28956895  0.53954345     0.32200
O779        O  0.22647217  0.27817196  0.52801548    -1.29700
H780        H  0.21018693  0.21666072  0.95883579     0.31800
O781        O  0.22226730  0.22642362  0.97045060    -1.31400
O782        O  0.29898939  0.32386584  0.00444165    -0.87200
O783        O  0.28994400  0.17183815  0.99516966    -0.88700
O784        O  0.25409978  0.28961937  0.57818499    -0.87300
O785        O  0.25466808  0.29803261  0.92579291    -0.87300
O786        O  0.24873687  0.21144349  0.92060518    -0.87000
O787        O  0.24898935  0.20236969  0.57323886    -0.86800
O788        O  0.32813988  0.24218935  0.54028905    -0.87200
O789        O  0.32796754  0.24475569  0.95770047    -0.86700
O790        O  0.29667027  0.24349250  0.57396894    -0.87700
O791        O  0.29656111  0.24878711  0.92426437    -0.86900
O792        O  0.25603136  0.32392371  0.54765349    -0.87300
O793        O  0.24594298  0.17224062  0.53858777    -0.87000
O794        O  0.24673581  0.17721723  0.95117536    -0.86700
O795        O  0.25554044  0.32810605  0.96057300    -0.87100
O796        O  0.32937890  0.28949054  0.00150035    -0.87400
O797        O  0.32439916  0.20214663  0.99883749    -0.88700
Zr798      Zr  0.25434677  0.30413452  0.00312058     2.83100
Zr799      Zr  0.24766211  0.19652210  0.99634311     2.83500
Zr800      Zr  0.25137316  0.24751532  0.55374548     2.84100
Zr801      Zr  0.25150640  0.25336630  0.94505540     2.83400
Zr802      Zr  0.30466929  0.24708377  0.99982903     2.84200
O803        O  0.27657541  0.22324519  0.97087544    -1.09300
O804        O  0.28064144  0.27429172  0.52798448    -1.08800
C805        C  0.32320896  0.31460563  0.00328983     1.05900
C806        C  0.31513203  0.17802393  0.99683078     1.08500
C807        C  0.25532008  0.31470128  0.57194338     1.06100
C808        C  0.25552006  0.32206922  0.93536799     1.06400
C809        C  0.24743006  0.18642072  0.92692501     1.06000
C810        C  0.24692818  0.17825502  0.56382215     1.05600
C811        C  0.32120125  0.24157596  0.56511840     1.06000
C812        C  0.32100253  0.24546488  0.93289895     1.05500
H813        H  0.28666874  0.20805484  0.53468933     0.32200
O814        O  0.27616506  0.22053989  0.52433848    -1.30400
H815        H  0.29209832  0.28822709  0.96351665     0.32200
O816        O  0.27996949  0.27733899  0.97395517    -1.31800
C817        C  0.24540709  0.15564220  0.58336605    -0.05900
C818        C  0.23399185  0.13096592  0.57578882    -0.05900
C819        C  0.23218289  0.10968093  0.59402985    -0.24000
C820        C  0.24201712  0.11242147  0.62027328     0.18200
C821        C  0.25359159  0.13706087  0.62811006     0.15400
C822        C  0.25515776  0.15845127  0.60972742    -0.19100
C823        C  0.26344098  0.13994160  0.65426548    -0.20900
C824        C  0.26177578  0.11880230  0.67255842    -0.13500
C825        C  0.25045071  0.09407940  0.66519903     0.03200
C826        C  0.24061494  0.09102039  0.63879209    -0.25600
H827        H  0.22612199  0.12818207  0.55574377     0.08300
H828        H  0.22311274  0.09104984  0.58756545     0.11900
H829        H  0.26418221  0.17721192  0.61590953     0.11800
H830        H  0.27249631  0.15861228  0.66062696     0.11600
H831        H  0.26980110  0.12172294  0.69251763     0.12100
H832        H  0.23174339  0.07214719  0.63272870     0.14100
C833        C  0.25571158  0.33419516  0.59457645    -0.05900
C834        C  0.25790575  0.32505589  0.62120784    -0.05900
C835        C  0.25802043  0.34302916  0.64268046    -0.24000
C836        C  0.25579636  0.37059412  0.63809206     0.18200
C837        C  0.25370600  0.38012201  0.61151269     0.15400
C838        C  0.25363401  0.36193139  0.58996591    -0.19100
C839        C  0.25160302  0.40770614  0.60693117    -0.20900
C840        C  0.25112910  0.42564159  0.62842615    -0.13500
C841        C  0.25267296  0.41643266  0.65504964     0.03200
C842        C  0.25535020  0.38873911  0.65964772    -0.25600
H843        H  0.25958366  0.30389335  0.62555707     0.08300
H844        H  0.25971617  0.33532641  0.66290584     0.11900
H845        H  0.25177857  0.36940458  0.56966591     0.11800
H846        H  0.25013969  0.41543179  0.58670154     0.11600
H847        H  0.24929687  0.44679765  0.62410751     0.12100
H848        H  0.25685389  0.38121736  0.67996291     0.14100
C849        C  0.25709115  0.40409770  0.83337336    -0.05900
C850        C  0.26045071  0.37757811  0.82434322    -0.05900
C851        C  0.26145431  0.35630922  0.84248927    -0.24000
C852        C  0.25901797  0.36107454  0.87004990     0.18200
C853        C  0.25605750  0.38760544  0.87942024     0.15400
C854        C  0.25524035  0.40889914  0.86110258    -0.19100
C855        C  0.25359693  0.39240440  0.90696411    -0.20900
C856        C  0.25369914  0.37112268  0.92506182    -0.13500
C857        C  0.25631113  0.34456464  0.91601259     0.03200
C858        C  0.25917205  0.33974819  0.88835539    -0.25600
H859        H  0.26220290  0.37317309  0.80316693     0.08300
H860        H  0.26387431  0.33611106  0.83493362     0.11900
H861        H  0.25273425  0.42915305  0.86848298     0.11800
H862        H  0.25132658  0.41261673  0.91451382     0.11600
H863        H  0.25141147  0.37552745  0.94618910     0.12100
H864        H  0.26131994  0.31944050  0.88099768     0.14100
C865        C  0.24606242  0.08400083  0.84540948    -0.05900
C866        C  0.23972358  0.07547905  0.87153881    -0.05900
C867        C  0.23818823  0.09384283  0.89261194    -0.24000
C868        C  0.24298824  0.12108754  0.88799073     0.18200
C869        C  0.24902802  0.12992820  0.86177455     0.15400
C870        C  0.25055632  0.11139551  0.84071564    -0.19100
C871        C  0.25355784  0.15717055  0.85704445    -0.20900
C872        C  0.25251951  0.17547277  0.87814804    -0.13500
C873        C  0.24709702  0.16690915  0.90448995     0.03200
C874        C  0.24208328  0.13958791  0.90916851    -0.25600
H875        H  0.23582025  0.05457427  0.87572902     0.08300
H876        H  0.23333598  0.08671279  0.91253872     0.11900
H877        H  0.25544673  0.11833907  0.82072017     0.11800
H878        H  0.25810447  0.16431653  0.83704827     0.11600
H879        H  0.25643838  0.19634633  0.87382447     0.12100
H880        H  0.23765741  0.13265089  0.92926918     0.14100
C881        C  0.40547769  0.16564475  0.74812412    -0.05900
C882        C  0.37993677  0.17426609  0.73934416    -0.05900
C883        C  0.35755026  0.15741294  0.74080865    -0.24000
C884        C  0.36005101  0.13157910  0.75133767     0.18200
C885        C  0.38542779  0.12280888  0.76076395     0.15400
C886        C  0.40801711  0.13976138  0.75887296    -0.19100
C887        C  0.38778528  0.09715172  0.77178931    -0.20900
C888        C  0.36561752  0.07995260  0.77230583    -0.13500
C889        C  0.34052379  0.08801014  0.76187871     0.03200
C890        C  0.33774108  0.11421362  0.75207451    -0.25600
H891        H  0.37723646  0.19414447  0.73112580     0.08300
H892        H  0.33828219  0.16458619  0.73362060     0.11900
H893        H  0.42740093  0.13299268  0.76615915     0.11800
H894        H  0.40690362  0.09017468  0.77954005     0.11600
H895        H  0.36829199  0.06002785  0.78043299     0.12100
H896        H  0.31857098  0.12072123  0.74402403     0.14100
C897        C  0.34313032  0.41452755  0.73962568    -0.05900
C898        C  0.36854410  0.42349468  0.73088074    -0.05900
C899        C  0.39097757  0.40668316  0.73172917    -0.24000
C900        C  0.38859827  0.38059356  0.74162115     0.18200
C901        C  0.36303162  0.37112353  0.74982141     0.15400
C902        C  0.34041375  0.38797353  0.74841281    -0.19100
C903        C  0.36062638  0.34515793  0.75995174    -0.20900
C904        C  0.38320318  0.32868633  0.76176959    -0.13500
C905        C  0.40874560  0.33765561  0.75329684     0.03200
C906        C  0.41132775  0.36385859  0.74349110    -0.25600
H907        H  0.37123532  0.44379148  0.72376115     0.08300
H908        H  0.41029519  0.41428924  0.72515137     0.11900
H909        H  0.32101654  0.38078678  0.75527484     0.11800
H910        H  0.34128346  0.33755937  0.76648453     0.11600
H911        H  0.38054506  0.30863997  0.76958272     0.12100
H912        H  0.43077712  0.37096497  0.73671207     0.14100
C913        C  0.15527135  0.08417608  0.75483447    -0.05900
C914        C  0.12887995  0.07384879  0.75240953    -0.05900
C915        C  0.10653327  0.09077005  0.75165471    -0.24000
C916        C  0.10993234  0.11848399  0.75326352     0.18200
C917        C  0.13620921  0.12906568  0.75621790     0.15400
C918        C  0.15863834  0.11193264  0.75709469    -0.19100
C919        C  0.13974138  0.15670829  0.75785188    -0.20900
C920        C  0.11766815  0.17374385  0.75614218    -0.13500
C921        C  0.09133499  0.16364467  0.75283686     0.03200
C922        C  0.08760692  0.13579751  0.75166580    -0.25600
H923        H  0.12535174  0.05253084  0.75072586     0.08300
H924        H  0.08663644  0.08216349  0.74948866     0.11900
H925        H  0.17866856  0.12025009  0.75916831     0.11800
H926        H  0.15964740  0.16522759  0.76022014     0.11600
H927        H  0.12145345  0.19504739  0.75737231     0.12100
H928        H  0.06753796  0.12763514  0.74931052     0.14100
C929        C  0.09356244  0.33575366  0.75764933    -0.05900
C930        C  0.11773353  0.32764704  0.76994191    -0.05900
C931        C  0.14016434  0.34445521  0.77024587    -0.24000
C932        C  0.13899780  0.36958768  0.75794135     0.18200
C933        C  0.11480929  0.37787043  0.74540918     0.15400
C934        C  0.09218212  0.36103583  0.74557353    -0.19100
C935        C  0.11367556  0.40283942  0.73281987    -0.20900
C936        C  0.13596092  0.41975728  0.73330011    -0.13500
C937        C  0.15991885  0.41199976  0.74617776     0.03200
C938        C  0.16149500  0.38665505  0.75812404    -0.25600
H939        H  0.11929537  0.30817865  0.77936118     0.08300
H940        H  0.15845401  0.33771968  0.77994670     0.11900
H941        H  0.07379290  0.36727736  0.73569858     0.11800
H942        H  0.09546849  0.40942218  0.72286216     0.11600
H943        H  0.13440468  0.43914317  0.72369915     0.12100
H944        H  0.17983381  0.38060867  0.76820769     0.14100
C945        C  0.40845184  0.25246657  0.66202649    -0.05900
C946        C  0.38308179  0.26189067  0.67037572    -0.05900
C947        C  0.36080958  0.26046679  0.65352653    -0.24000
C948        C  0.36329850  0.24955121  0.62787759     0.18200
C949        C  0.38858232  0.23979204  0.61914050     0.15400
C950        C  0.41107502  0.24133573  0.63625929    -0.19100
C951        C  0.39088485  0.22892051  0.59335991    -0.20900
C952        C  0.36867003  0.22867770  0.57617686    -0.13500
C953        C  0.34361480  0.23904223  0.58450967     0.03200
C954        C  0.34098022  0.24885663  0.61067276    -0.25600
H955        H  0.38038870  0.27052241  0.69010873     0.08300
H956        H  0.34163212  0.26805514  0.66054717     0.11900
H957        H  0.43037908  0.23361346  0.62971322     0.11800
H958        H  0.40995637  0.22111237  0.58629048     0.11600
H959        H  0.37122930  0.22071568  0.55613914     0.12100
H960        H  0.32187371  0.25699831  0.61728527     0.14100
C961        C  0.15867832  0.25385747  0.58559192    -0.05900
C962        C  0.13268573  0.26047511  0.57621058    -0.05900
C963        C  0.11055355  0.26077449  0.59341180    -0.24000
C964        C  0.11372490  0.25459258  0.62053891     0.18200
C965        C  0.13965792  0.24824706  0.63039692     0.15400
C966        C  0.16196485  0.24786844  0.61290823    -0.19100
C967        C  0.14280781  0.24238896  0.65762538    -0.20900
C968        C  0.12063064  0.24291577  0.67487953    -0.13500
C969        C  0.09461520  0.24917552  0.66537018     0.03200
C970        C  0.09139973  0.25483910  0.63795937    -0.25600
H971        H  0.12925661  0.26541704  0.55536262     0.08300
H972        H  0.09092375  0.26585362  0.58544719     0.11900
H973        H  0.18172345  0.24273434  0.62051579     0.11800
H974        H  0.16246364  0.23749928  0.66564155     0.11600
H975        H  0.12397089  0.23836078  0.69582455     0.12100
H976        H  0.07164584  0.25979800  0.63022272     0.14100
C977        C  0.08994953  0.24493663  0.83972859    -0.05900
C978        C  0.11269433  0.22936708  0.83342766    -0.05900
C979        C  0.13557111  0.22978350  0.84969466    -0.24000
C980        C  0.13636917  0.24598104  0.87259152     0.18200
C981        C  0.11338404  0.26122598  0.87961442     0.15400
C982        C  0.09018522  0.26041604  0.86328713    -0.19100
C983        C  0.11416550  0.27720808  0.90270215    -0.20900
C984        C  0.13712855  0.27757003  0.91893824    -0.13500
C985        C  0.15999639  0.26227120  0.91230724     0.03200
C986        C  0.15963458  0.24689090  0.88873818    -0.25600
H987        H  0.11292550  0.21710797  0.81550953     0.08300
H988        H  0.15280435  0.21771293  0.84412059     0.11900
H989        H  0.07284055  0.27260113  0.86828086     0.11800
H990        H  0.09687131  0.28911207  0.90844883     0.11600
H991        H  0.13687488  0.28954132  0.93704979     0.12100
H992        H  0.17695995  0.23471900  0.88363898     0.14100
C993        C  0.40777707  0.24990201  0.83505021    -0.05900
C994        C  0.38324277  0.26138008  0.82685486    -0.05900
C995        C  0.36112391  0.26191171  0.84396611    -0.24000
C996        C  0.36305801  0.25103199  0.86968138     0.18200
C997        C  0.38761037  0.23940622  0.87818215     0.15400
C998        C  0.40987673  0.23896902  0.86084060    -0.19100
C999        C  0.38950127  0.22865760  0.90397933    -0.20900
C1000       C  0.36759747  0.23018298  0.92143023    -0.13500
C1001       C  0.34322965  0.24222785  0.91335947     0.03200
C1002       C  0.34097590  0.25211421  0.88718645    -0.25600
H1003       H  0.38113944  0.27015618  0.80712383     0.08300
H1004       H  0.34255440  0.27098826  0.83712583     0.11900
H1005       H  0.42863013  0.22993125  0.86727275     0.11800
H1006       H  0.40802621  0.21947410  0.91081656     0.11600
H1007       H  0.36983538  0.22205993  0.94142478     0.12100
H1008       H  0.32238803  0.26145879  0.88074175     0.14100
C1009       C  0.34692240  0.33441261  0.49923285    -0.05900
C1010       C  0.37287870  0.32709144  0.50764188    -0.05900
C1011       C  0.39356568  0.34602386  0.50875230    -0.24000
C1012       C  0.38880464  0.37264952  0.50126731     0.18200
C1013       C  0.36139023  0.38064787  0.00332568     0.15400
C1014       C  0.34023816  0.36203211  0.00277196    -0.19100
C1015       C  0.35618896  0.40819158  0.00193258    -0.20900
C1016       C  0.37742674  0.42651381  0.00197700    -0.13500
C1017       C  0.40476805  0.41852790  0.49538145     0.03200
C1018       C  0.40944460  0.39175987  0.50280268    -0.25600
H1019       H  0.37705780  0.30680031  0.51400861     0.08300
H1020       H  0.41326091  0.33987729  0.51573402     0.11900
H1021       H  0.31969745  0.36916635  0.00122441     0.11800
H1022       H  0.33572524  0.41555969  0.00057310     0.11600
H1023       H  0.37275928  0.44763851  0.00054499     0.12100
H1024       H  0.42915526  0.38576115  0.50990891     0.14100
C1025       C  0.33450725  0.15559049  0.49687718    -0.05900
C1026       C  0.32774524  0.13077386  0.98540972    -0.05900
C1027       C  0.34597212  0.10945770  0.98539971    -0.24000
C1028       C  0.37157955  0.11250352  0.99677483     0.18200
C1029       C  0.37881941  0.13729067  0.00837848     0.15400
C1030       C  0.35979650  0.15840879  0.50934357    -0.19100
C1031       C  0.40382412  0.13995551  0.52118593    -0.20900
C1032       C  0.42268147  0.11915436  0.51977573    -0.13500
C1033       C  0.41636936  0.09499166  0.50673456     0.03200
C1034       C  0.39018609  0.09130805  0.99640717    -0.25600
H1035       H  0.30818067  0.12787189  0.97630924     0.08300
H1036       H  0.34007759  0.09062923  0.97635725     0.11900
H1037       H  0.36497160  0.17709541  0.51911965     0.11800
H1038       H  0.40924752  0.15836180  0.53132545     0.11600
H1039       H  0.44220722  0.12193586  0.52899616     0.12100
H1040       H  0.38462076  0.07243509  0.98722311     0.14100
C1041       C  0.08581564  0.40597024  0.49789231    -0.05900
C1042       C  0.07691880  0.37930647  0.49997819    -0.05900
C1043       C  0.09526602  0.35814009  0.50059869    -0.24000
C1044       C  0.12295850  0.36311523  0.49925453     0.18200
C1045       C  0.13012016  0.38785444  0.00112711     0.15400
C1046       C  0.11152050  0.40908431  0.00095822    -0.19100
C1047       C  0.15695058  0.39219831  0.00863831    -0.20900
C1048       C  0.17539652  0.37107508  0.00858985    -0.13500
C1049       C  0.16926802  0.34675039  0.49896628     0.03200
C1050       C  0.14140627  0.34185388  0.49987997    -0.25600
H1051       H  0.05566874  0.37470548  0.50118032     0.08300
H1052       H  0.08776302  0.33783993  0.50217361     0.11900
H1053       H  0.11806894  0.42889331  0.00694759     0.11800
H1054       H  0.16370439  0.41196862  0.01450446     0.11600
H1055       H  0.19596169  0.37511021  0.01451789     0.12100
H1056       H  0.13398301  0.32150466  0.50127780     0.14100
C1057       C  0.09578748  0.08552077  0.49999035    -0.05900
C1058       C  0.11956558  0.07760462  0.98639941    -0.05900
C1059       C  0.14061435  0.09597333  0.98385503    -0.24000
C1060       C  0.13795533  0.12198557  0.99403859     0.18200
C1061       C  0.11304849  0.13073810  0.50816795     0.15400
C1062       C  0.09227171  0.11166027  0.51019705    -0.19100
C1063       C  0.10986157  0.15678864  0.51832706    -0.20900
C1064       C  0.13066781  0.17560374  0.51587609    -0.13500
C1065       C  0.15514373  0.16863239  0.50347140     0.03200
C1066       C  0.15901758  0.14059211  0.99141583    -0.25600
H1067       H  0.12211839  0.05775510  0.97804077     0.08300
H1068       H  0.15894426  0.08984884  0.97381042     0.11900
H1069       H  0.07349237  0.11709938  0.51983039     0.11800
H1070       H  0.09128416  0.16262747  0.52809330     0.11600
H1071       H  0.12772623  0.19551850  0.52395756     0.12100
H1072       H  0.17749878  0.13471422  0.98147358     0.14100
C1073       C  0.33590656  0.99377483  0.84476641    -0.05900
C1074       C  0.37042752  0.48600007  0.82745989    -0.05900
C1075       C  0.39167122  0.48704787  0.84574331    -0.24000
C1076       C  0.38701702  0.49496555  0.87229256     0.18200
C1077       C  0.37716519  0.00880534  0.86632327     0.15400
C1078       C  0.36021809  0.00794504  0.84380537    -0.19100
C1079       C  0.40096297  0.02371261  0.86562728    -0.20900
C1080       C  0.41789058  0.02435395  0.88786951    -0.13500
C1081       C  0.41137776  0.01020557  0.91134976     0.03200
C1082       C  0.40844247  0.49748158  0.89036466    -0.25600
H1083       H  0.37468611  0.48046912  0.80690428     0.08300
H1084       H  0.41182444  0.48226650  0.83896324     0.11900
H1085       H  0.36544873  0.01909815  0.82591484     0.11800
H1086       H  0.40664213  0.03467471  0.84777156     0.11600
H1087       H  0.43642448  0.03569306  0.88657558     0.12100
H1088       H  0.42868069  0.49277547  0.88375922     0.14100
C1089       C  0.16292817  0.99550016  0.84237049    -0.05900
C1090       C  0.17168610  0.98592950  0.86747143    -0.05900
C1091       C  0.15489872  0.98662430  0.88970733    -0.24000
C1092       C  0.12879836  0.99653552  0.88731355     0.18200
C1093       C  0.12221084  0.50185985  0.86356641     0.15400
C1094       C  0.14002397  0.50156072  0.84174167    -0.19100
C1095       C  0.09502155  0.50783034  0.85970301    -0.20900
C1096       C  0.07731265  0.50758148  0.88134143    -0.13500
C1097       C  0.08503834  0.00509788  0.90690233     0.03200
C1098       C  0.11165175  0.99649997  0.90957103    -0.25600
H1099       H  0.19175561  0.97788964  0.87005109     0.08300
H1100       H  0.16228401  0.97917232  0.90872402     0.11900
H1101       H  0.13268638  0.50639570  0.82186709     0.11800
H1102       H  0.08738169  0.51248675  0.83990922     0.11600
H1103       H  0.05636205  0.51212120  0.87749734     0.12100
H1104       H  0.11876613  0.98897515  0.92867390     0.14100
C1105       C  0.15907885  0.00252814  0.66411149    -0.05900
C1106       C  0.13404518  0.01306507  0.67212407    -0.05900
C1107       C  0.11159548  0.01163194  0.65538618    -0.24000
C1108       C  0.11352721  0.99960669  0.63012468     0.18200
C1109       C  0.13640125  0.49123866  0.62303144     0.15400
C1110       C  0.15871143  0.49343033  0.64033366    -0.19100
C1111       C  0.13981155  0.48306418  0.59641734    -0.20900
C1112       C  0.11775408  0.48170944  0.57910212    -0.13500
C1113       C  0.09322549  0.98791820  0.58702080     0.03200
C1114       C  0.09099586  0.99869728  0.61296067    -0.25600
H1115       H  0.13174640  0.02242283  0.69158250     0.08300
H1116       H  0.09268514  0.01999078  0.66223276     0.11900
H1117       H  0.17864770  0.48851829  0.63300332     0.11800
H1118       H  0.15963319  0.47810999  0.58883106     0.11600
H1119       H  0.12134239  0.47580270  0.55852363     0.12100
H1120       H  0.07212247  0.00753444  0.61931862     0.14100
C1121       C  0.40774481  0.00190668  0.58612569    -0.05900
C1122       C  0.38195823  0.48490848  0.57585163    -0.05900
C1123       C  0.35923812  0.48456695  0.59244533    -0.24000
C1124       C  0.36001287  0.49678105  0.61771141     0.18200
C1125       C  0.38908527  0.00265797  0.63159580     0.15400
C1126       C  0.41144922  0.00159094  0.61408914    -0.19100
C1127       C  0.39272576  0.00210278  0.65938335    -0.20900
C1128       C  0.37056963  0.00285990  0.67662384    -0.13500
C1129       C  0.34401758  0.00428284  0.66664980     0.03200
C1130       C  0.33731896  0.49641469  0.63478271    -0.25600
H1131       H  0.38066091  0.47549080  0.55633216     0.08300
H1132       H  0.34106360  0.47482728  0.58546389     0.11900
H1133       H  0.43162548  0.00054910  0.62224003     0.11800
H1134       H  0.41275745  0.00088687  0.66784989     0.11600
H1135       H  0.37440249  0.00209324  0.69796530     0.12100
H1136       H  0.31904990  0.48631799  0.62856208     0.14100
C1137       C  0.00378192  0.09638973  0.91691441    -0.05900
C1138       C  0.50010264  0.12255171  0.92539112    -0.05900
C1139       C  0.49920319  0.14387287  0.90729347    -0.24000
C1140       C  0.50097682  0.13918466  0.87967927     0.18200
C1141       C  0.00402456  0.11359713  0.87102868     0.15400
C1142       C  0.00487572  0.09195472  0.88903945    -0.19100
C1143       C  0.00478987  0.10919650  0.84332590    -0.20900
C1144       C  0.00314813  0.13070238  0.82556252    -0.13500
C1145       C  0.00070250  0.15716219  0.83504414     0.03200
C1146       C  0.49936954  0.16053224  0.86138858    -0.25600
H1147       H  0.49834872  0.12694743  0.94656440     0.08300
H1148       H  0.49686844  0.16404798  0.91492577     0.11900
H1149       H  0.00607239  0.07171129  0.88130278     0.11800
H1150       H  0.00652678  0.08909320  0.83535747     0.10800
H1151       H  0.00383565  0.12648786  0.80428554     0.12100
H1152       H  0.49674469  0.18075128  0.86883156     0.14100
C1153       C  0.99984954  0.41943417  0.90326208    -0.05900
C1154       C  0.01084649  0.42704745  0.87838159    -0.05900
C1155       C  0.01280661  0.40859471  0.85733328    -0.24000
C1156       C  0.00372368  0.38222183  0.86075085     0.18200
C1157       C  0.49254130  0.37224472  0.88660604     0.15400
C1158       C  0.48988253  0.39072198  0.90772705    -0.19100
C1159       C  0.48335608  0.34589298  0.88950624    -0.20900
C1160       C  0.48588373  0.32762640  0.86843641    -0.13500
C1161       C  0.99687304  0.33686506  0.84366572     0.03200
C1162       C  0.00565572  0.36341304  0.83984996    -0.25600
H1163       H  0.01833486  0.44717243  0.87531058     0.08300
H1164       H  0.02154544  0.41490485  0.83846593     0.11900
H1165       H  0.48061498  0.38448929  0.92637596     0.11800
H1166       H  0.47410422  0.33940886  0.90806428     0.11600
H1167       H  0.47831465  0.30749725  0.87124665     0.12100
H1168       H  0.01423257  0.36935514  0.82078164     0.14100
C1169       C  0.99368490  0.40522383  0.58275807    -0.05900
C1170       C  0.48362871  0.38028523  0.57531829    -0.05900
C1171       C  0.48268539  0.35915752  0.59371944    -0.24000
C1172       C  0.49232196  0.36264937  0.61991877     0.18200
C1173       C  0.99999356  0.38850480  0.62839805     0.15400
C1174       C  0.00066454  0.40957469  0.60977370    -0.19100
C1175       C  0.00718116  0.39287575  0.65519620    -0.20900
C1176       C  0.00696966  0.37174934  0.67353973    -0.13500
C1177       C  0.99977059  0.34569375  0.66547993     0.03200
C1178       C  0.49152334  0.34153182  0.63856839    -0.25600
H1179       H  0.47589164  0.37705250  0.55528852     0.08300
H1180       H  0.47437328  0.34010574  0.58746588     0.11900
H1181       H  0.00701061  0.42928616  0.61629619     0.11800
H1182       H  0.01314283  0.41261914  0.66195552     0.11600
H1183       H  0.01288747  0.37579481  0.69402857     0.12100
H1184       H  0.48333686  0.32231972  0.63262219     0.14100
C1185       C  0.00855114  0.08355658  0.59558074    -0.05900
C1186       C  0.00943008  0.07435186  0.62225297    -0.05900
C1187       C  0.00856652  0.09230648  0.64375627    -0.24000
C1188       C  0.00671516  0.11991405  0.63913239     0.18200
C1189       C  0.50397224  0.13048828  0.61054083     0.15400
C1190       C  0.50492816  0.11218416  0.58916541    -0.19100
C1191       C  0.50010139  0.15786275  0.60579967    -0.20900
C1192       C  0.49860875  0.17582640  0.62722830    -0.13500
C1193       C  0.00308532  0.16584085  0.65591479     0.03200
C1194       C  0.00512932  0.13809631  0.66066690    -0.25600
H1195       H  0.01042622  0.05314700  0.62660552     0.08300
H1196       H  0.00900428  0.08454561  0.66402182     0.11900
H1197       H  0.50264603  0.11942630  0.56881724     0.11800
H1198       H  0.49809508  0.16538026  0.58553181     0.11600
H1199       H  0.49550831  0.19682731  0.62284791     0.12100
H1200       H  0.00556093  0.13061332  0.68104488     0.14100
O1201       O  0.00319331  0.53778923  0.07968356    -0.87200
O1202       O  0.00362014  0.54929557  0.42706364    -0.87400
O1203       O  0.04989858  0.57328876  0.00370366    -0.89000
O1204       O  0.46126029  0.57941376  0.00715918    -0.87800
O1205       O  0.42662482  0.54908606  0.00526689    -0.87400
O1206       O  0.08006180  0.53866584  0.00044309    -0.88700
O1207       O  0.00498886  0.57905078  0.46200046    -0.87200
O1208       O  0.00599582  0.57258242  0.04985894    -0.86800
Zr1209     Zr  0.00443406  0.55423642  0.00455889     2.84300
O1210       O  0.47534270  0.53263510  0.47458407    -1.08800
O1211       O  0.03001994  0.52314866  0.02887000    -1.09500
C1212       C  0.00483231  0.56295923  0.07388564     1.05900
C1213       C  0.00450698  0.57326316  0.43676323     1.05900
C1214       C  0.07411808  0.56387255  0.00186766     1.08800
C1215       C  0.43603373  0.57320272  0.00670994     1.06600
H1216       H  0.04198176  0.53914508  0.46456067     0.32200
O1217       O  0.03022517  0.52785578  0.47495848    -1.29700
H1218       H  0.46531111  0.53786537  0.04289874     0.31800
O1219       O  0.47561175  0.52702376  0.03058595    -1.31400
O1220       O  0.00058214  0.96283455  0.42068804    -0.87200
O1221       O  0.99766873  0.95143924  0.07283063    -0.88700
O1222       O  0.07702012  0.49928530  0.45518665    -0.87300
O1223       O  0.42467185  0.50889328  0.45416487    -0.87300
O1224       O  0.42509753  0.49993106  0.04654018    -0.87000
O1225       O  0.07752312  0.49201935  0.04189886    -0.86800
O1226       O  0.04009355  0.92281590  0.99545863    -0.87200
O1227       O  0.45278951  0.92773292  0.99822280    -0.86700
O1228       O  0.07477692  0.95306948  0.99709152    -0.87700
O1229       O  0.42249017  0.96220510  0.00140960    -0.86900
O1230       O  0.04398981  0.50571032  0.42372589    -0.87300
O1231       O  0.04584102  0.49236341  0.07541301    -0.87000
O1232       O  0.45845852  0.49496454  0.07803125    -0.86700
O1233       O  0.45846720  0.51039529  0.42301152    -0.87100
O1234       O  0.99886550  0.92825422  0.45080864    -0.87400
O1235       O  0.99652934  0.92148823  0.03796709    -0.88700
Zr1236     Zr  0.00159901  0.50448426  0.44621087     2.83100
Zr1237     Zr  0.00093007  0.49611124  0.05430012     2.83500
Zr1238     Zr  0.05489258  0.49651999  0.99886769     2.84100
Zr1239     Zr  0.44566878  0.50384876  0.00294066     2.83400
Zr1240     Zr  0.99713641  0.94698869  0.99608323     2.84200
O1241       O  0.47295479  0.97386695  0.02609451    -1.09300
O1242       O  0.02705859  0.97358078  0.47088712    -1.08800
C1243       C  0.99989377  0.93768809  0.42663124     1.05900
C1244       C  0.99677110  0.92733352  0.06324717     1.08500
C1245       C  0.06866139  0.50334912  0.43089463     1.06100
C1246       C  0.43351729  0.51070646  0.42978723     1.06400
C1247       C  0.43335361  0.49631370  0.07071888     1.06000
C1248       C  0.07050698  0.49125634  0.06683283     1.05600
C1249       C  0.06541968  0.92889723  0.99623517     1.06000
C1250       C  0.42858481  0.93712034  0.00016612     1.05500
H1251       H  0.03646846  0.95833856  0.03498680     0.32200
O1252       O  0.02582674  0.97075540  0.02467544    -1.30400
H1253       H  0.45980618  0.96671299  0.45859165     0.32200
O1254       O  0.47158754  0.97655019  0.47040928    -1.31800
O1255       O  0.99916282  0.70976683  0.17213394    -0.87200
O1256       O  0.99928839  0.70249796  0.32522231    -0.87400
O1257       O  0.04140819  0.67264621  0.24517668    -0.89000
O1258       O  0.45364802  0.67460641  0.24630435    -0.87800
O1259       O  0.42326350  0.70909993  0.24649794    -0.87400
O1260       O  0.07344150  0.70569295  0.24585820    -0.88700
O1261       O  0.99963734  0.67196058  0.29077254    -0.87200
O1262       O  0.99743426  0.67554429  0.20284028    -0.86800
Zr1263     Zr  0.99744638  0.69530099  0.24784995     2.84300
O1264       O  0.47314372  0.72077635  0.27545915    -1.08800
O1265       O  0.02491581  0.72362873  0.22233166    -1.09500
C1266       C  0.99841204  0.68467420  0.17854934     1.05900
C1267       C  0.00027201  0.67832732  0.31591000     1.05900
C1268       C  0.06606932  0.68106372  0.24424269     1.08800
C1269       C  0.42935171  0.68411280  0.24614308     1.06600
H1270       H  0.03626176  0.70879459  0.28687525     0.32200
O1271       O  0.02488314  0.72058670  0.27661032    -1.29700
H1272       H  0.46124958  0.71411381  0.20882437     0.31800
O1273       O  0.47305137  0.72410967  0.22048246    -1.31400
O1274       O  0.99871075  0.78984719  0.32937182    -0.87200
O1275       O  0.99925038  0.79770518  0.17589269    -0.88700
O1276       O  0.07439669  0.74435061  0.29409128    -0.87300
O1277       O  0.42449644  0.74503934  0.29137667    -0.87300
O1278       O  0.42423037  0.75509361  0.20794951    -0.87000
O1279       O  0.07570333  0.74914471  0.20879693    -0.86800
O1280       O  0.04628597  0.82476405  0.25525483    -0.87200
O1281       O  0.45648672  0.82583390  0.25568702    -0.86700
O1282       O  0.07651827  0.79021991  0.25353262    -0.87700
O1283       O  0.42506794  0.79232984  0.25457392    -0.86900
O1284       O  0.04307992  0.74596766  0.32780825    -0.87300
O1285       O  0.04494292  0.75081089  0.17465806    -0.87000
O1286       O  0.45536894  0.75419103  0.17407414    -0.86700
O1287       O  0.45541293  0.74363869  0.32536068    -0.87100
O1288       O  0.00006322  0.82398911  0.29857467    -0.87400
O1289       O  0.00030630  0.82826178  0.21034390    -0.88700
Zr1290     Zr  0.99883796  0.74721612  0.30541898     2.83100
Zr1291     Zr  0.99957244  0.75270606  0.19554438     2.83500
Zr1292     Zr  0.05200177  0.74863178  0.25102636     2.84100
Zr1293     Zr  0.44786413  0.75031781  0.24971948     2.83400
Zr1294     Zr  0.00092832  0.80471943  0.25339706     2.84200
O1295       O  0.47426565  0.77925600  0.22431752    -1.09300
O1296       O  0.02661034  0.77535782  0.27976747    -1.08800
C1297       C  0.99914126  0.81492667  0.32287997     1.05900
C1298       C  0.99962883  0.82194995  0.18515159     1.08500
C1299       C  0.06760352  0.74430647  0.31905348     1.06100
C1300       C  0.43101844  0.74325924  0.31620162     1.06400
C1301       C  0.43089796  0.75534836  0.18306054     1.06000
C1302       C  0.06944053  0.74954519  0.18375869     1.05600
C1303       C  0.07060136  0.81527953  0.25476489     1.06000
C1304       C  0.43180853  0.81710593  0.25597687     1.05500
H1305       H  0.03881281  0.78916949  0.21414894     0.32200
O1306       O  0.02692891  0.77800518  0.22455577    -1.30400
H1307       H  0.46265124  0.78559897  0.29086388     0.32200
O1308       O  0.47411921  0.77537960  0.27911419    -1.31800
O1309       O  0.32702119  0.00105970  0.20865379    -0.87200
O1310       O  0.17417260  0.00437125  0.20835351    -0.87400
O1311       O  0.25055566  0.96112728  0.17132821    -0.89000
O1312       O  0.24888700  0.54908506  0.17558484    -0.87800
O1313       O  0.25139741  0.58007473  0.20958099    -0.87400
O1314       O  0.24964368  0.92654079  0.20154942    -0.88700
O1315       O  0.20552487  0.00461583  0.17455107    -0.87200
O1316       O  0.29590210  0.00332532  0.17475456    -0.86800
Zr1317     Zr  0.25057410  0.00337835  0.19577480     2.84300
O1318       O  0.22236665  0.53061441  0.22511976    -1.08800
O1319       O  0.27727080  0.97475006  0.22186839    -1.09500
C1320       C  0.32042408  0.00191449  0.18373835     1.05900
C1321       C  0.18092704  0.00509026  0.18338733     1.05900
C1322       C  0.24998881  0.93598323  0.17741161     1.08800
C1323       C  0.25059896  0.57331141  0.18446273     1.06600
H1324       H  0.21150807  0.96473074  0.21013656     0.32200
O1325       O  0.22318376  0.97498204  0.22171277    -1.29700
H1326       H  0.28800678  0.54207244  0.21447344     0.31800
O1327       O  0.27660066  0.53042237  0.22487940    -1.31400
O1328       O  0.17558263  0.99934429  0.29570083    -0.87200
O1329       O  0.32680144  0.99641722  0.29497311    -0.88700
O1330       O  0.20479397  0.92451624  0.24770108    -0.87300
O1331       O  0.20483908  0.57828565  0.25398833    -0.87300
O1332       O  0.29407207  0.57803053  0.25570516    -0.87000
O1333       O  0.29501346  0.92364414  0.24538497    -0.86800
O1334       O  0.25084202  0.95153950  0.32290686    -0.87200
O1335       O  0.25200386  0.54054548  0.32839525    -0.86700
O1336       O  0.25056619  0.92092237  0.28861424    -0.87700
O1337       O  0.25093287  0.57526048  0.29823880    -0.86900
O1338       O  0.17382062  0.95844965  0.24991010    -0.87300
O1339       O  0.32637096  0.95724833  0.24746730    -0.87000
O1340       O  0.32566411  0.54452064  0.25572690    -0.86700
O1341       O  0.17368347  0.54445013  0.25552623    -0.87100
O1342       O  0.20924828  0.99647178  0.32690590    -0.87400
O1343       O  0.29379808  0.99358168  0.32685570    -0.88700
Zr1344     Zr  0.19703138  0.00090174  0.25118236     2.83100
Zr1345     Zr  0.30415915  0.00001668  0.25111029     2.83500
Zr1346     Zr  0.25009215  0.94549360  0.24667475     2.84100
Zr1347     Zr  0.24965284  0.55660969  0.25308864     2.83400
Zr1348     Zr  0.25130733  0.99694955  0.30382632     2.84200
O1349       O  0.27667368  0.52773001  0.27893808    -1.09300
O1350       O  0.22363201  0.97138368  0.27590280    -1.08800
C1351       C  0.18438325  0.99741824  0.32007549     1.05900
C1352       C  0.31861004  0.99402254  0.31951961     1.08500
C1353       C  0.18025531  0.93347784  0.24904647     1.06100
C1354       C  0.18033932  0.56933566  0.25536306     1.06400
C1355       C  0.31860068  0.56929668  0.25682624     1.06000
C1356       C  0.31965863  0.93240672  0.24584554     1.05600
C1357       C  0.25089084  0.92726020  0.31370064     1.06000
C1358       C  0.25180468  0.56570559  0.32231793     1.05500
H1359       H  0.28886395  0.95884215  0.28601957     0.32200
O1360       O  0.27759813  0.97062612  0.27560587    -1.30400
H1361       H  0.21246886  0.53812000  0.29190333     0.32200
O1362       O  0.22355980  0.52780988  0.27985326    -1.31800
O1363       O  0.20310521  0.67719168  0.49756317    -0.87200
O1364       O  0.21277188  0.82882236  0.50082569    -0.87400
O1365       O  0.17392659  0.75322238  0.04064094    -0.89000
O1366       O  0.17530112  0.75647321  0.45663095    -0.87800
O1367       O  0.20675543  0.75572431  0.42296816    -0.87400
O1368       O  0.20437455  0.74781992  0.07470955    -0.88700
O1369       O  0.17816886  0.79855498  0.50028232    -0.87200
O1370       O  0.17287616  0.71172708  0.50004442    -0.86800
Zr1371     Zr  0.19786867  0.75371691  0.49931890     2.84300
O1372       O  0.22639863  0.78071355  0.47388161    -1.08800
O1373       O  0.22233680  0.72353591  0.02418773    -1.09500
C1374       C  0.17892024  0.68657731  0.49952424     1.05900
C1375       C  0.18758300  0.82269350  0.50005756     1.05900
C1376       C  0.18001793  0.75053791  0.06559801     1.08800
C1377       C  0.18212435  0.75666462  0.43173691     1.06600
H1378       H  0.21421486  0.78834448  0.03963068     0.32200
O1379       O  0.22531879  0.77733595  0.02828000    -1.29700
H1380       H  0.21087404  0.71646841  0.45885119     0.31800
O1381       O  0.22281726  0.72649080  0.47037902    -1.31400
O1382       O  0.29980905  0.82403888  0.50288688    -0.87200
O1383       O  0.29064357  0.67230388  0.49577066    -0.88700
O1384       O  0.24997808  0.78892635  0.07923731    -0.87300
O1385       O  0.25335522  0.79879105  0.42593832    -0.87300
O1386       O  0.25044077  0.71204343  0.42035074    -0.87000
O1387       O  0.24837628  0.70153705  0.07260010    -0.86800
O1388       O  0.32643937  0.74305006  0.04437196    -0.87200
O1389       O  0.32770395  0.74816274  0.45741625    -0.86700
O1390       O  0.29406787  0.74440565  0.07715765    -0.87700
O1391       O  0.29661195  0.75198771  0.42365228    -0.86900
O1392       O  0.25269086  0.82340866  0.04900333    -0.87300
O1393       O  0.24541346  0.67174616  0.03754259    -0.87000
O1394       O  0.24790881  0.67779457  0.45086767    -0.86700
O1395       O  0.25553039  0.82891005  0.46060116    -0.87100
O1396       O  0.33018199  0.78958025  0.50131850    -0.87400
O1397       O  0.32493848  0.70288859  0.49869315    -0.88700
Zr1398     Zr  0.25480137  0.80440705  0.50285522     2.83100
Zr1399     Zr  0.24819588  0.69667622  0.49630878     2.83500
Zr1400     Zr  0.24991143  0.74690704  0.05437800     2.84100
Zr1401     Zr  0.25161336  0.75377685  0.44487123     2.83400
Zr1402     Zr  0.30491072  0.74753739  0.49996228     2.84200
O1403       O  0.27695817  0.72367157  0.47078232    -1.09300
O1404       O  0.27951367  0.77451497  0.03015001    -1.08800
C1405       C  0.32407550  0.81475369  0.50200116     1.05900
C1406       C  0.31579181  0.67871533  0.49713275     1.08500
C1407       C  0.25075606  0.81406361  0.07312535     1.06100
C1408       C  0.25472976  0.82286188  0.43541567     1.06400
C1409       C  0.24913796  0.68704758  0.42663073     1.06000
C1410       C  0.24638969  0.67763080  0.06280460     1.05600
C1411       C  0.31884484  0.74275938  0.06904866     1.06000
C1412       C  0.32109288  0.75007427  0.43256161     1.05500
H1413       H  0.28620749  0.70772835  0.03583549     0.32200
O1414       O  0.27577040  0.72023570  0.02543715    -1.30400
H1415       H  0.29210668  0.78856951  0.46345545     0.32200
O1416       O  0.28011879  0.77753189  0.47388733    -1.31800
C1417       C  0.24502349  0.65525490  0.08221048    -0.05900
C1418       C  0.22753554  0.63361440  0.07780557    -0.05900
C1419       C  0.22503764  0.61321033  0.09689618    -0.24000
C1420       C  0.24027625  0.61390158  0.12059484     0.18200
C1421       C  0.25842385  0.63527404  0.12486877     0.15400
C1422       C  0.26060948  0.65581914  0.10572494    -0.19100
C1423       C  0.27381621  0.63594158  0.14841857    -0.20900
C1424       C  0.27078804  0.61605205  0.16791296    -0.13500
C1425       C  0.25265218  0.59485122  0.16409328     0.03200
C1426       C  0.23764685  0.59371200  0.14014646    -0.25600
H1427       H  0.21526442  0.63286047  0.05988129     0.08300
H1428       H  0.21102345  0.59701439  0.09322313     0.11900
H1429       H  0.27437767  0.67230619  0.10913269     0.11800
H1430       H  0.28807754  0.65197419  0.15186459     0.11600
H1431       H  0.28300156  0.61697667  0.18586368     0.12100
H1432       H  0.22373618  0.57731339  0.13691196     0.14100
C1433       C  0.24907427  0.83362166  0.09554414    -0.05900
C1434       C  0.24674771  0.82469454  0.12221322    -0.05900
C1435       C  0.24590174  0.84291927  0.14344072    -0.24000
C1436       C  0.24744636  0.87047322  0.13849821     0.18200
C1437       C  0.24918309  0.87976606  0.11182205     0.15400
C1438       C  0.24979839  0.86135468  0.09054906    -0.19100
C1439       C  0.25073178  0.90732348  0.10688286    -0.20900
C1440       C  0.25099394  0.92549529  0.12816798    -0.13500
C1441       C  0.24955481  0.91652262  0.15487865     0.03200
C1442       C  0.24759427  0.88884247  0.15980785    -0.25600
H1443       H  0.24581143  0.80353462  0.12678690     0.08300
H1444       H  0.24437531  0.83542735  0.16375902     0.11900
H1445       H  0.25125948  0.86868026  0.07016046     0.11800
H1446       H  0.25201088  0.91483158  0.08655462     0.11600
H1447       H  0.25244832  0.94663425  0.12362843     0.12100
H1448       H  0.24634473  0.88150339  0.18020598     0.14100
C1449       C  0.25163309  0.90479249  0.33322745    -0.05900
C1450       C  0.24910429  0.87814040  0.32430578    -0.05900
C1451       C  0.24962612  0.85686464  0.34243277    -0.24000
C1452       C  0.25270997  0.86172582  0.36989690     0.18200
C1453       C  0.25571528  0.88829791  0.37913027     0.15400
C1454       C  0.25516935  0.90962953  0.36079323    -0.19100
C1455       C  0.25898615  0.89310645  0.40659941    -0.20900
C1456       C  0.25878828  0.87186432  0.42480281    -0.13500
C1457       C  0.25543096  0.84531825  0.41592041     0.03200
C1458       C  0.25260490  0.84046028  0.38827160    -0.25600
H1459       H  0.24651694  0.87363699  0.30323679     0.08300
H1460       H  0.24743671  0.83660908  0.33496622     0.11900
H1461       H  0.25744520  0.92995689  0.36803875     0.11800
H1462       H  0.26149166  0.91332767  0.41404651     0.11600
H1463       H  0.26119924  0.87631117  0.44590417     0.12100
H1464       H  0.25005555  0.82017515  0.38099040     0.14100
C1465       C  0.25214540  0.58508021  0.34480482    -0.05900
C1466       C  0.25129398  0.57600560  0.37148994    -0.05900
C1467       C  0.25045956  0.59413398  0.39274360    -0.24000
C1468       C  0.25045454  0.62170019  0.38777049     0.18200
C1469       C  0.25161451  0.63110509  0.36109339     0.15400
C1470       C  0.25257907  0.61279392  0.33982011    -0.19100
C1471       C  0.25155637  0.65867704  0.35612802    -0.20900
C1472       C  0.25041128  0.67677137  0.37740913    -0.13500
C1473       C  0.24939487  0.66766154  0.40412230     0.03200
C1474       C  0.24931561  0.63997677  0.40906573    -0.25600
H1475       H  0.25097533  0.55482100  0.37602973     0.08300
H1476       H  0.24963113  0.58657493  0.41307518     0.11900
H1477       H  0.25336202  0.62019038  0.31941628     0.11800
H1478       H  0.25239773  0.66625907  0.33579994     0.11600
H1479       H  0.25047801  0.69795944  0.37285896     0.12100
H1480       H  0.24855077  0.63258032  0.42946552     0.14100
C1481       C  0.40624107  0.66549721  0.24593533    -0.05900
C1482       C  0.38103282  0.67431666  0.23647249    -0.05900
C1483       C  0.35853442  0.65766514  0.23755567    -0.24000
C1484       C  0.36071465  0.63192383  0.24834215     0.18200
C1485       C  0.38586574  0.62298320  0.25822563     0.15400
C1486       C  0.40849793  0.63971671  0.25676252    -0.19100
C1487       C  0.38799215  0.59739482  0.26935466    -0.20900
C1488       C  0.36573678  0.58043497  0.26973792    -0.13500
C1489       C  0.34086192  0.58874267  0.25909634     0.03200
C1490       C  0.33831227  0.61481206  0.24897938    -0.25600
H1491       H  0.37868504  0.69419421  0.22813674     0.08300
H1492       H  0.33945734  0.66492506  0.22995778     0.11900
H1493       H  0.42767707  0.63289769  0.26453556     0.11800
H1494       H  0.40697174  0.59031777  0.27734917     0.11600
H1495       H  0.36813021  0.56053986  0.27802124     0.12100
H1496       H  0.31926561  0.62140060  0.24069328     0.14100
C1497       C  0.34271103  0.91328469  0.24508987    -0.05900
C1498       C  0.36873251  0.92309118  0.23935791    -0.05900
C1499       C  0.39134067  0.90661729  0.24101788    -0.24000
C1500       C  0.38866590  0.87982032  0.24852030     0.18200
C1501       C  0.36269196  0.86947959  0.25399044     0.15400
C1502       C  0.33983819  0.88615547  0.25199946    -0.19100
C1503       C  0.36009807  0.84271058  0.26172198    -0.20900
C1504       C  0.38279207  0.82631114  0.26348355    -0.13500
C1505       C  0.40874574  0.83612868  0.25735236     0.03200
C1506       C  0.41151612  0.86318452  0.25034993    -0.25600
H1507       H  0.37178996  0.94382176  0.23383088     0.08300
H1508       H  0.41098279  0.91495787  0.23665248     0.11900
H1509       H  0.32006582  0.87825875  0.25663458     0.11800
H1510       H  0.34048895  0.83436064  0.26622119     0.11600
H1511       H  0.37984856  0.80561598  0.26923077     0.12100
H1512       H  0.43123998  0.87107318  0.24550532     0.14100
C1513       C  0.15743961  0.58830818  0.25666352    -0.05900
C1514       C  0.13375163  0.58054287  0.27010035    -0.05900
C1515       C  0.11071046  0.59648652  0.26939622    -0.24000
C1516       C  0.11076174  0.62058204  0.25515783     0.18200
C1517       C  0.13448516  0.62874868  0.24167478     0.15400
C1518       C  0.15773967  0.61265026  0.24263129    -0.19100
C1519       C  0.13452580  0.65291266  0.22750181    -0.20900
C1520       C  0.11173168  0.66923744  0.22752217    -0.13500
C1521       C  0.08827866  0.66161326  0.24139442     0.03200
C1522       C  0.08768623  0.63689820  0.25466764    -0.25600
H1523       H  0.13296867  0.56184632  0.28105856     0.08300
H1524       H  0.09282508  0.58990203  0.27992573     0.11900
H1525       H  0.17571252  0.61864496  0.23188135     0.11800
H1526       H  0.15235482  0.65947027  0.21686879     0.11600
H1527       H  0.11258936  0.68820223  0.21702857     0.12100
H1528       H  0.06980033  0.63099917  0.26562566     0.14100
C1529       C  0.09388323  0.83406941  0.25486553    -0.05900
C1530       C  0.12031744  0.82397670  0.25249257    -0.05900
C1531       C  0.14242736  0.84115366  0.25078660    -0.24000
C1532       C  0.13876582  0.86891010  0.25147280     0.18200
C1533       C  0.11243010  0.87932990  0.25432766     0.15400
C1534       C  0.09020893  0.86192989  0.25612964    -0.19100
C1535       C  0.10870413  0.90704082  0.25501163    -0.20900
C1536       C  0.13071766  0.92425181  0.25290651    -0.13500
C1537       C  0.15719370  0.91429516  0.25017846     0.03200
C1538       C  0.16096803  0.88638896  0.24936982    -0.25600
H1539       H  0.12403704  0.80264433  0.25151521     0.08300
H1540       H  0.16239150  0.83268624  0.24869507     0.11900
H1541       H  0.07010057  0.87011417  0.25807116     0.11800
H1542       H  0.08872292  0.91546459  0.25716927     0.11600
H1543       H  0.12684200  0.94556125  0.25364707     0.12100
H1544       H  0.18107845  0.87826509  0.24726243     0.14100
C1545       C  0.40823479  0.75659774  0.16391885    -0.05900
C1546       C  0.38439745  0.76999874  0.17120712    -0.05900
C1547       C  0.36184796  0.76952883  0.15451068    -0.24000
C1548       C  0.36250592  0.75526626  0.13035184     0.18200
C1549       C  0.38638903  0.74170014  0.12285502     0.15400
C1550       C  0.40917107  0.74265779  0.13953770    -0.19100
C1551       C  0.38703793  0.72726081  0.09883933    -0.20900
C1552       C  0.36457856  0.72684282  0.08206456    -0.13500
C1553       C  0.34088256  0.74070821  0.08895878     0.03200
C1554       C  0.33981975  0.75454285  0.11344866    -0.25600
H1555       H  0.38317023  0.78081536  0.18999369     0.08300
H1556       H  0.34382645  0.78010853  0.16062546     0.11900
H1557       H  0.42728428  0.73189519  0.13398000     0.11800
H1558       H  0.40503631  0.71657228  0.09283632     0.11600
H1559       H  0.36587907  0.71592489  0.06334570     0.12100
H1560       H  0.32179125  0.76552005  0.11883628     0.14100
C1561       C  0.15678008  0.75054729  0.08463036    -0.05900
C1562       C  0.13029463  0.75259698  0.07457662    -0.05900
C1563       C  0.10804551  0.75240796  0.09169212    -0.24000
C1564       C  0.11154776  0.75023300  0.11940893     0.18200
C1565       C  0.13792543  0.74809505  0.12988674     0.15400
C1566       C  0.16035731  0.74832323  0.11251714    -0.19100
C1567       C  0.14139932  0.74577388  0.15760187    -0.20900
C1568       C  0.11913393  0.74594829  0.17472648    -0.13500
C1569       C  0.09266837  0.74852949  0.16468446     0.03200
C1570       C  0.08912025  0.75036913  0.13677992    -0.25600
H1571       H  0.12657811  0.75430144  0.05326937     0.08300
H1572       H  0.08805230  0.75401587  0.08319223     0.11900
H1573       H  0.18048584  0.74674665  0.12071540     0.11800
H1574       H  0.16137675  0.74394858  0.16610144     0.11600
H1575       H  0.12282178  0.74420162  0.19603634     0.12100
H1576       H  0.06901699  0.75219009  0.12857854     0.14100
C1577       C  0.09022138  0.74228417  0.33848803    -0.05900
C1578       C  0.11401828  0.72901045  0.33080438    -0.05900
C1579       C  0.13681625  0.72923523  0.34721315    -0.24000
C1580       C  0.13652523  0.74300511  0.37165894     0.18200
C1581       C  0.11251129  0.75584720  0.37999384     0.15400
C1582       C  0.08942170  0.75517331  0.36353358    -0.19100
C1583       C  0.11216233  0.76955885  0.40445489    -0.20900
C1584       C  0.13516383  0.77042246  0.42051972    -0.13500
C1585       C  0.15920868  0.75771347  0.41257384     0.03200
C1586       C  0.15978480  0.74413413  0.38789117    -0.25600
H1587       H  0.11513267  0.71867090  0.31175019     0.08300
H1588       H  0.15484081  0.71901889  0.34052367     0.11900
H1589       H  0.07129183  0.76556858  0.36969142     0.11800
H1590       H  0.09405469  0.77956445  0.41124816     0.11600
H1591       H  0.13406584  0.78097448  0.43946274     0.12100
H1592       H  0.17797860  0.73386638  0.38171230     0.14100
C1593       C  0.40828317  0.74115816  0.33511276    -0.05900
C1594       C  0.38260500  0.73378381  0.32564148    -0.05900
C1595       C  0.36032915  0.73399026  0.34264193    -0.24000
C1596       C  0.36323964  0.74167025  0.36944075     0.18200
C1597       C  0.38907741  0.74853432  0.37925290     0.15400
C1598       C  0.41142915  0.74808730  0.36211488    -0.19100
C1599       C  0.39211234  0.75615561  0.40599342    -0.20900
C1600       C  0.36984276  0.75697010  0.42290124    -0.13500
C1601       C  0.34396448  0.75020047  0.41349410     0.03200
C1602       C  0.34079026  0.74266665  0.38657779    -0.25600
H1603       H  0.37961821  0.72810232  0.30490165     0.08300
H1604       H  0.34079959  0.72846613  0.33473922     0.11900
H1605       H  0.43104853  0.75392904  0.36960071     0.11800
H1606       H  0.41170749  0.76153076  0.41385377     0.11600
H1607       H  0.37295820  0.76301048  0.44351336     0.12100
H1608       H  0.32105939  0.73719291  0.37912366     0.14100
C1609       C  0.34636561  0.83485258  0.00510358    -0.05900
C1610       C  0.37324958  0.82598932  0.00584565    -0.05900
C1611       C  0.39456022  0.84421324  0.00507024    -0.24000
C1612       C  0.38952859  0.87174540  0.00350002     0.18200
C1613       C  0.36269809  0.88062415  0.49813416     0.15400
C1614       C  0.34144729  0.86204585  0.49833432    -0.19100
C1615       C  0.35761804  0.90810428  0.49547916    -0.20900
C1616       C  0.37885680  0.92644739  0.49570112    -0.13500
C1617       C  0.40595484  0.91773895  0.00103446     0.03200
C1618       C  0.41092764  0.89006577  0.00253353    -0.25600
H1619       H  0.37791147  0.80485226  0.00691376     0.08300
H1620       H  0.41502012  0.83673334  0.00560772     0.11900
H1621       H  0.32095608  0.86913142  0.49610185     0.11800
H1622       H  0.33721081  0.91543566  0.49334070     0.11600
H1623       H  0.37422995  0.94752834  0.49364008     0.12100
H1624       H  0.43143856  0.88270688  0.00306316     0.14100
C1625       C  0.33590104  0.65711345  0.99508066    -0.05900
C1626       C  0.32887284  0.63192316  0.48505078    -0.05900
C1627       C  0.34752291  0.61105583  0.48415416    -0.24000
C1628       C  0.37320065  0.61435439  0.49524177     0.18200
C1629       C  0.38011407  0.63888047  0.50756880     0.15400
C1630       C  0.35974433  0.65866334  0.01020674    -0.19100
C1631       C  0.40251165  0.63915583  0.02442075    -0.20900
C1632       C  0.42129461  0.61828660  0.02334889    -0.13500
C1633       C  0.41635540  0.59545225  0.00762846     0.03200
C1634       C  0.39208378  0.59352754  0.49407272    -0.25600
H1635       H  0.30927943  0.62890398  0.47604992     0.08300
H1636       H  0.34190552  0.59237874  0.47463398     0.11900
H1637       H  0.36336659  0.67595066  0.02284804     0.11800
H1638       H  0.40662121  0.65637448  0.03698356     0.11600
H1639       H  0.43951443  0.61977647  0.03516337     0.12100
H1640       H  0.38667833  0.57483968  0.48442652     0.14100
C1641       C  0.08507490  0.90628702  0.99643032    -0.05900
C1642       C  0.07647950  0.88009233  0.99048219    -0.05900
C1643       C  0.09459198  0.85866041  0.99058905    -0.24000
C1644       C  0.12178370  0.86283671  0.99670840     0.18200
C1645       C  0.13182172  0.88863654  0.49693665     0.15400
C1646       C  0.11352493  0.91009330  0.49696670    -0.19100
C1647       C  0.15949357  0.89328716  0.49944387    -0.20900
C1648       C  0.17748576  0.87185309  0.50034812    -0.13500
C1649       C  0.16758444  0.84563520  0.00219543     0.03200
C1650       C  0.14017816  0.84139046  0.99636807    -0.25600
H1651       H  0.05566453  0.87610810  0.98549069     0.08300
H1652       H  0.08731924  0.83880097  0.98572818     0.11900
H1653       H  0.12103244  0.93036655  0.49890555     0.11800
H1654       H  0.16722090  0.91350420  0.50100717     0.11600
H1655       H  0.19871241  0.87620101  0.50257873     0.12100
H1656       H  0.13316408  0.82148727  0.99127309     0.14100
C1657       C  0.09681780  0.58345789  0.00081854    -0.05900
C1658       C  0.12248695  0.57581239  0.49462215    -0.05900
C1659       C  0.14372272  0.59405762  0.49308133    -0.24000
C1660       C  0.13936641  0.62127044  0.49827790     0.18200
C1661       C  0.11340725  0.62967004  0.00125139     0.15400
C1662       C  0.09206593  0.61120989  0.00301138    -0.19100
C1663       C  0.10856835  0.65725811  0.00309634    -0.20900
C1664       C  0.12978331  0.67554550  0.00106672    -0.13500
C1665       C  0.15642854  0.66672139  0.99730647     0.03200
C1666       C  0.16072712  0.63963782  0.49680375    -0.25600
H1667       H  0.12656398  0.55496549  0.49028991     0.08300
H1668       H  0.16358888  0.58685429  0.48777598     0.11900
H1669       H  0.07174777  0.61853890  0.00591532     0.11800
H1670       H  0.08832124  0.66473551  0.00607367     0.11600
H1671       H  0.12525724  0.69668460  0.00267111     0.12100
H1672       H  0.18069223  0.63253424  0.49170827     0.14100
C1673       C  0.33840070  0.49508071  0.34116625    -0.05900
C1674       C  0.33208313  0.97822053  0.36504800    -0.05900
C1675       C  0.34897660  0.97918228  0.38737706    -0.24000
C1676       C  0.37261394  0.99438084  0.38664442     0.18200
C1677       C  0.38031338  0.50966393  0.36194485     0.15400
C1678       C  0.36313969  0.50858369  0.33953371    -0.19100
C1679       C  0.40459711  0.52385032  0.36085689    -0.20900
C1680       C  0.42136597  0.52498102  0.38331218    -0.13500
C1681       C  0.41408966  0.51216868  0.40738939     0.03200
C1682       C  0.38921690  0.99621941  0.40937357    -0.25600
H1683       H  0.31352255  0.96693838  0.36644083     0.08300
H1684       H  0.34326334  0.96849073  0.40539143     0.11900
H1685       H  0.36847462  0.51912550  0.32130586     0.11800
H1686       H  0.41071643  0.53390100  0.34260703     0.11600
H1687       H  0.44025549  0.53569173  0.38177628     0.12100
H1688       H  0.38402681  0.98537909  0.42746941     0.14100
C1689       C  0.16385337  0.49445217  0.34221908    -0.05900
C1690       C  0.16954771  0.47735061  0.36383642    -0.05900
C1691       C  0.15224860  0.47589293  0.38574008    -0.24000
C1692       C  0.12908489  0.49174491  0.38651961     0.18200
C1693       C  0.12155667  0.00468799  0.36243413     0.15400
C1694       C  0.13911108  0.00622310  0.34046349    -0.19100
C1695       C  0.09560576  0.01523680  0.36069920    -0.20900
C1696       C  0.07835999  0.01367791  0.38262312    -0.13500
C1697       C  0.08830267  0.50599635  0.40905117     0.03200
C1698       C  0.11178731  0.49058819  0.40867867    -0.25600
H1699       H  0.18752173  0.46507579  0.36377521     0.08300
H1700       H  0.15709032  0.46252083  0.40213253     0.11900
H1701       H  0.13268506  0.01585354  0.32207443     0.11800
H1702       H  0.08865458  0.02473621  0.34244788     0.11600
H1703       H  0.05842639  0.02222350  0.38064231     0.12100
H1704       H  0.11615654  0.47719337  0.42520546     0.14100
C1705       C  0.15624787  0.50492915  0.16577611    -0.05900
C1706       C  0.12998727  0.51097761  0.17468960    -0.05900
C1707       C  0.10782010  0.50826895  0.15764871    -0.24000
C1708       C  0.11130568  0.49948896  0.13121119     0.18200
C1709       C  0.13760702  0.99356018  0.12117003     0.15400
C1710       C  0.16030823  0.99490854  0.13813269    -0.19100
C1711       C  0.13946414  0.98182850  0.09573859    -0.20900
C1712       C  0.11705350  0.98103826  0.07880876    -0.13500
C1713       C  0.09291136  0.48978878  0.08673932     0.03200
C1714       C  0.08915147  0.49743932  0.11365566    -0.25600
H1715       H  0.12647145  0.51769131  0.19503481     0.08300
H1716       H  0.08794255  0.51310001  0.16516309     0.11900
H1717       H  0.17933885  0.98655487  0.13157951     0.11800
H1718       H  0.15835974  0.97353074  0.08877276     0.11600
H1719       H  0.11935332  0.97219560  0.05911604     0.12100
H1720       H  0.06923775  0.50288274  0.12064862     0.14100
C1721       C  0.41152850  0.49331460  0.09083543    -0.05900
C1722       C  0.38700506  0.02185498  0.08011033    -0.05900
C1723       C  0.36464915  0.02351430  0.09700151    -0.24000
C1724       C  0.36533512  0.01178087  0.12242545     0.18200
C1725       C  0.38793415  0.50866937  0.13096697     0.15400
C1726       C  0.41109782  0.50845643  0.11455310    -0.19100
C1727       C  0.38688948  0.52464665  0.15401835    -0.20900
C1728       C  0.36396468  0.52464054  0.17027900    -0.13500
C1729       C  0.34141808  0.50886001  0.16381291     0.03200
C1730       C  0.34247278  0.01235643  0.13919575    -0.25600
H1731       H  0.38557002  0.03081950  0.06040137     0.08300
H1732       H  0.34668339  0.03360495  0.08998084     0.11900
H1733       H  0.42819387  0.52097594  0.11952450     0.11800
H1734       H  0.40391166  0.53697235  0.15963688     0.11600
H1735       H  0.36395085  0.53682703  0.18824619     0.12100
H1736       H  0.32419968  0.02217007  0.13255378     0.14100
C1737       C  0.00465916  0.59595266  0.41759782    -0.05900
C1738       C  0.50320388  0.62241016  0.42549924    -0.05900
C1739       C  0.50168114  0.64336362  0.40706940    -0.24000
C1740       C  0.50223023  0.63810526  0.37950443     0.18200
C1741       C  0.00710068  0.61301956  0.37183298     0.15400
C1742       C  0.00810376  0.59154473  0.38994629    -0.19100
C1743       C  0.01046593  0.60865627  0.34431769    -0.20900
C1744       C  0.00842969  0.62993094  0.32631740    -0.13500
C1745       C  0.00287209  0.65604034  0.33540416     0.03200
C1746       C  0.50019516  0.65909760  0.36095782    -0.25600
H1747       H  0.50244567  0.62717200  0.44665354     0.08300
H1748       H  0.49990486  0.66370310  0.41440323     0.11900
H1749       H  0.01139496  0.57143481  0.38245591     0.11800
H1750       H  0.01447000  0.58874639  0.33667244     0.10800
H1751       H  0.01113472  0.62583307  0.30517776     0.12100
H1752       H  0.49788411  0.67942740  0.36819089     0.14100
C1753       C  0.00028018  0.91820150  0.40399487    -0.05900
C1754       C  0.00311984  0.92694270  0.37727496    -0.05900
C1755       C  0.00326267  0.90858362  0.35605510    -0.24000
C1756       C  0.00063697  0.88108724  0.36107502     0.18200
C1757       C  0.49711511  0.87107851  0.38791165     0.15400
C1758       C  0.49607918  0.88977384  0.40899305    -0.19100
C1759       C  0.49212243  0.84386356  0.39266493    -0.20900
C1760       C  0.49314178  0.82533447  0.37165527    -0.13500
C1761       C  0.99849820  0.83479686  0.34511547     0.03200
C1762       C  0.00074295  0.86245052  0.33992601    -0.25600
H1763       H  0.00523537  0.94802032  0.37269755     0.08300
H1764       H  0.00543971  0.91589850  0.33572720     0.11900
H1765       H  0.49122473  0.88294109  0.42902632     0.11800
H1766       H  0.48743824  0.83687436  0.41267999     0.11600
H1767       H  0.48912685  0.80449466  0.37605395     0.12100
H1768       H  0.00279599  0.86951532  0.31949656     0.14100
C1769       C  0.99605004  0.90462694  0.08273043    -0.05900
C1770       C  0.49662105  0.87910400  0.07524916    -0.05900
C1771       C  0.49622974  0.85776157  0.09337596    -0.24000
C1772       C  0.49922617  0.86236252  0.12091840     0.18200
C1773       C  0.00082623  0.88751200  0.12851610     0.15400
C1774       C  0.00153647  0.90886936  0.11012042    -0.19100
C1775       C  0.00627597  0.89187079  0.15572387    -0.20900
C1776       C  0.00558294  0.87064026  0.17395403    -0.13500
C1777       C  0.99960668  0.84442798  0.16544949     0.03200
C1778       C  0.49852963  0.84094278  0.13922971    -0.25600
H1779       H  0.49407603  0.87474596  0.05414799     0.08300
H1780       H  0.49344994  0.83761647  0.08582034     0.11900
H1781       H  0.00650148  0.92878210  0.11717781     0.11800
H1782       H  0.01114090  0.91174488  0.16294092     0.11600
H1783       H  0.01006974  0.87478858  0.19477749     0.12100
H1784       H  0.49559376  0.82075512  0.13183556     0.14100
C1785       C  0.00473663  0.58231247  0.09653059    -0.05900
C1786       C  0.00487377  0.57322236  0.12323188    -0.05900
C1787       C  0.00362454  0.59132388  0.14458200    -0.24000
C1788       C  0.00206228  0.61891596  0.13972116     0.18200
C1789       C  0.50021894  0.62935885  0.11121105     0.15400
C1790       C  0.50108018  0.61094041  0.08998138    -0.19100
C1791       C  0.49810392  0.65687074  0.10620115    -0.20900
C1792       C  0.49766763  0.67508471  0.12745919    -0.13500
C1793       C  0.99900132  0.66498606  0.15612169     0.03200
C1794       C  0.00058256  0.63725751  0.16108234    -0.25600
H1795       H  0.00579693  0.55203785  0.12770168     0.08300
H1796       H  0.00370475  0.58370946  0.16490666     0.11900
H1797       H  0.50004889  0.61818228  0.06953253     0.11800
H1798       H  0.49687829  0.66432155  0.08584700     0.11600
H1799       H  0.49605807  0.69620890  0.12290084     0.12100
H1800       H  0.00087104  0.62990750  0.18150919     0.14100
O1801       O  0.00253808  0.53846848  0.57915493    -0.87200
O1802       O  0.00159904  0.54995305  0.92783426    -0.87400
O1803       O  0.04966628  0.57396338  0.50397606    -0.89000
O1804       O  0.46289577  0.58046659  0.50559369    -0.87800
O1805       O  0.42812840  0.55057573  0.50094058    -0.87400
O1806       O  0.08005249  0.53948355  0.50167622    -0.88700
O1807       O  0.00348586  0.57964798  0.96281074    -0.87200
O1808       O  0.00551779  0.57312386  0.54919063    -0.86800
Zr1809     Zr  0.00472822  0.55428668  0.50406063     2.84300
O1810       O  0.47229145  0.53142637  0.97626060    -1.08800
O1811       O  0.02972924  0.52353804  0.52925427    -1.09500
C1812       C  0.00419625  0.56361398  0.57325017     1.05900
C1813       C  0.00253048  0.57393897  0.93755427     1.05900
C1814       C  0.07390250  0.56465764  0.50262079     1.08800
C1815       C  0.43765330  0.57452315  0.50372410     1.06600
H1816       H  0.04088692  0.53885051  0.96417028     0.32200
O1817       O  0.02926144  0.52765726  0.97482644    -1.29700
H1818       H  0.46421112  0.53883824  0.54028427     0.31800
O1819       O  0.47487191  0.52778959  0.52846147    -1.31400
O1820       O  0.00016608  0.96309426  0.92066431    -0.87200
O1821       O  0.99674697  0.95239914  0.57360120    -0.88700
O1822       O  0.07578194  0.49764126  0.95417335    -0.87300
O1823       O  0.42019927  0.50643691  0.96149257    -0.87300
O1824       O  0.42252625  0.50179038  0.54049401    -0.87000
O1825       O  0.07674333  0.49199654  0.54309087    -0.86800
O1826       O  0.04076318  0.92201241  0.49559807    -0.87200
O1827       O  0.45247240  0.92788840  0.49690391    -0.86700
O1828       O  0.07555413  0.95216242  0.49676920    -0.87700
O1829       O  0.42198306  0.96230359  0.49881305    -0.86900
O1830       O  0.04214444  0.50421801  0.92349238    -0.87300
O1831       O  0.04448341  0.49175703  0.57608542    -0.87000
O1832       O  0.45372662  0.49752981  0.57425643    -0.86700
O1833       O  0.45049156  0.50616471  0.92690471    -0.87100
O1834       O  0.99795323  0.92827772  0.95059252    -0.87400
O1835       O  0.99578782  0.92214335  0.53899740    -0.88700
Zr1836     Zr  0.99967714  0.50481681  0.94652040     2.83100
Zr1837     Zr  0.99987895  0.49661402  0.55408600     2.83500
Zr1838     Zr  0.05535075  0.49712382  0.49966349     2.84100
Zr1839     Zr  0.44620515  0.50509929  0.49850690     2.83400
Zr1840     Zr  0.99829184  0.94668672  0.49648400     2.84200
O1841       O  0.47248631  0.97418917  0.52459366    -1.09300
O1842       O  0.02557507  0.97418114  0.97048716    -1.08800
C1843       C  0.99968901  0.93787909  0.92654211     1.05900
C1844       C  0.99530787  0.92829125  0.56422420     1.08500
C1845       C  0.06699262  0.50106400  0.92995473     1.06100
C1846       C  0.42628939  0.50646685  0.93635793     1.06400
C1847       C  0.42914335  0.49895962  0.56526953     1.06000
C1848       C  0.06931823  0.49066383  0.56786143     1.05600
C1849       C  0.06608361  0.92803152  0.49579296     1.06000
C1850       C  0.42819701  0.93721298  0.49804573     1.05500
H1851       H  0.03730217  0.95796298  0.53539022     0.32200
O1852       O  0.02694083  0.97055295  0.52500075    -1.30400
H1853       H  0.45969995  0.96673810  0.96005493     0.32200
O1854       O  0.47164157  0.97662377  0.97166499    -1.31800
O1855       O  0.99752348  0.70981864  0.67174663    -0.87200
O1856       O  0.00036604  0.70317948  0.82525595    -0.87400
O1857       O  0.04077496  0.67059314  0.74596567    -0.89000
O1858       O  0.45238502  0.67540115  0.74969108    -0.87800
O1859       O  0.42219350  0.71005881  0.74880277    -0.87400
O1860       O  0.07332123  0.70310463  0.74603526    -0.88700
O1861       O  0.99879900  0.67240980  0.79102732    -0.87200
O1862       O  0.99594133  0.67563848  0.70253936    -0.86800
Zr1863     Zr  0.99785639  0.69508104  0.74767892     2.84300
O1864       O  0.47196271  0.72285018  0.77628230    -1.08800
O1865       O  0.02516358  0.72286402  0.72115710    -1.09500
C1866       C  0.99628429  0.68477620  0.67822393     1.05900
C1867       C  0.99984948  0.67891393  0.81612519     1.05900
C1868       C  0.06559772  0.67846058  0.74523716     1.08800
C1869       C  0.42810924  0.68494770  0.74955429     1.06600
H1870       H  0.03718794  0.70837346  0.78624421     0.32200
O1871       O  0.02596785  0.72027274  0.77592771    -1.29700
H1872       H  0.46015009  0.71440978  0.70984588     0.31800
O1873       O  0.47200171  0.72465427  0.72123620    -1.31400
O1874       O  0.00017421  0.79100485  0.82848461    -0.87200
O1875       O  0.99856350  0.79823676  0.67609987    -0.88700
O1876       O  0.07680764  0.74337683  0.79223661    -0.87300
O1877       O  0.42284866  0.74951384  0.79082668    -0.87300
O1878       O  0.42374638  0.75511203  0.70752336    -0.87000
O1879       O  0.07503056  0.74918400  0.70597211    -0.86800
O1880       O  0.04859347  0.82301839  0.75421872    -0.87200
O1881       O  0.45740889  0.82805692  0.75454206    -0.86700
O1882       O  0.07865664  0.78826233  0.75218743    -0.87700
O1883       O  0.42548112  0.79493545  0.75377430    -0.86900
O1884       O  0.04586442  0.74626431  0.82626302    -0.87300
O1885       O  0.04352053  0.75165609  0.67245025    -0.87000
O1886       O  0.45496740  0.75378455  0.67378708    -0.86700
O1887       O  0.45382861  0.74747450  0.82472582    -0.87100
O1888       O  0.00202171  0.82493291  0.79740717    -0.87400
O1889       O  0.00244039  0.82864445  0.71045104    -0.88700
Zr1890     Zr  0.00103295  0.74777414  0.80505396     2.83100
Zr1891     Zr  0.99930803  0.75262856  0.69513324     2.83500
Zr1892     Zr  0.05326752  0.74726385  0.74948993     2.84100
Zr1893     Zr  0.44694143  0.75184659  0.74959859     2.83400
Zr1894     Zr  0.00253041  0.80448563  0.75281926     2.84200
O1895       O  0.47372334  0.78019434  0.72384759    -1.09300
O1896       O  0.02873056  0.77487936  0.77843648    -1.08800
C1897       C  0.00056691  0.81605930  0.82173011     1.05900
C1898       C  0.00011946  0.82248423  0.68538378     1.08500
C1899       C  0.07027591  0.74404073  0.81730455     1.06100
C1900       C  0.42939706  0.74805015  0.81563142     1.06400
C1901       C  0.43047091  0.75486090  0.68265992     1.06000
C1902       C  0.06813850  0.75080087  0.68108794     1.05600
C1903       C  0.07284381  0.81332756  0.75365783     1.06000
C1904       C  0.43270415  0.81962606  0.75524261     1.05500
H1905       H  0.03949060  0.78828775  0.71318534     0.32200
O1906       O  0.02772694  0.77717080  0.72377864    -1.30400
H1907       H  0.46233043  0.78778454  0.78970837     0.32200
O1908       O  0.47375655  0.77713934  0.77831621    -1.31800
O1909       O  0.32715333  0.00346810  0.71086116    -0.87200
O1910       O  0.17470128  0.00167234  0.70848073    -0.87400
O1911       O  0.25177860  0.96093557  0.67279896    -0.89000
O1912       O  0.24615213  0.54794444  0.67586815    -0.87800
O1913       O  0.24752145  0.57819988  0.71051485    -0.87400
O1914       O  0.25082340  0.92612792  0.70277151    -0.88700
O1915       O  0.20635320  0.00267906  0.67499419    -0.87200
O1916       O  0.29636493  0.00422837  0.67665195    -0.86800
Zr1917     Zr  0.25088812  0.00320690  0.69707586     2.84300
O1918       O  0.22162095  0.52798918  0.72623643    -1.08800
O1919       O  0.27764608  0.97505306  0.72363339    -1.09500
C1920       C  0.32085627  0.00409614  0.68579966     1.05900
C1921       C  0.18169857  0.00237436  0.68360533     1.05900
C1922       C  0.25132624  0.93575140  0.67865929     1.08800
C1923       C  0.24654697  0.57210507  0.68525276     1.06600
H1924       H  0.21251729  0.96359446  0.71081675     0.32200
O1925       O  0.22378126  0.97413116  0.72253051    -1.29700
H1926       H  0.28670045  0.54145965  0.71333255     0.31800
O1927       O  0.27585482  0.52945791  0.72393786    -1.31400
O1928       O  0.17378165  0.99786042  0.79544358    -0.87200
O1929       O  0.32503553  0.99753117  0.79799207    -0.88700
O1930       O  0.20613810  0.92315162  0.74829704    -0.87300
O1931       O  0.20338930  0.57454505  0.75612591    -0.87300
O1932       O  0.29335039  0.57650589  0.75640553    -0.87000
O1933       O  0.29533721  0.92410596  0.74637891    -0.86800
O1934       O  0.25075049  0.95225141  0.82513007    -0.87200
O1935       O  0.25296285  0.53865189  0.82917025    -0.86700
O1936       O  0.25192998  0.92175916  0.79074630    -0.87700
O1937       O  0.25034000  0.57315593  0.79880270    -0.86900
O1938       O  0.17457341  0.95651330  0.74994506    -0.87300
O1939       O  0.32638745  0.95805402  0.74874446    -0.87000
O1940       O  0.32570413  0.54369738  0.75531302    -0.86700
O1941       O  0.17283143  0.54016279  0.75749236    -0.87100
O1942       O  0.20705017  0.99518900  0.82698201    -0.87400
O1943       O  0.29143067  0.99494875  0.82929529    -0.88700
Zr1944     Zr  0.19673304  0.99920049  0.75165067     2.83100
Zr1945     Zr  0.30369807  0.00070044  0.75324944     2.83500
Zr1946     Zr  0.25063539  0.94529278  0.74805134     2.84100
Zr1947     Zr  0.24908815  0.55441646  0.75363239     2.83400
Zr1948     Zr  0.24969653  0.99685087  0.80505975     2.84200
O1949       O  0.27777108  0.52600754  0.77809659    -1.09300
O1950       O  0.22310278  0.97025054  0.77706745    -1.08800
C1951       C  0.18225832  0.99617426  0.81994055     1.05900
C1952       C  0.31634978  0.99544884  0.82244369     1.08500
C1953       C  0.18148174  0.93172090  0.74903312     1.06100
C1954       C  0.17900321  0.56515689  0.75756154     1.06400
C1955       C  0.31809653  0.56829391  0.75748006     1.06000
C1956       C  0.31977961  0.93318544  0.74664320     1.05600
C1957       C  0.25191110  0.92809118  0.81586751     1.06000
C1958       C  0.25151620  0.56380671  0.82295240     1.05500
H1959       H  0.28855342  0.95951131  0.78793410     0.32200
O1960       O  0.27715132  0.97101949  0.77735965    -1.30400
H1961       H  0.21361726  0.53483752  0.79293054     0.32200
O1962       O  0.22462151  0.52474405  0.78063216    -1.31800
O1963       O  0.20321434  0.67705362  0.99461733    -0.87200
O1964       O  0.21249287  0.82925673  0.00286420    -0.87400
O1965       O  0.17430895  0.74931712  0.54128787    -0.89000
O1966       O  0.17634574  0.75883136  0.95537020    -0.87800
O1967       O  0.20843352  0.75731980  0.92231103    -0.87400
O1968       O  0.20544128  0.74618983  0.57509079    -0.88700
O1969       O  0.17801194  0.79895837  0.99998522    -0.87200
O1970       O  0.17299320  0.71159874  0.99731127    -0.86800
Zr1971     Zr  0.19777502  0.75400691  0.99846340     2.84300
O1972       O  0.22700242  0.78106731  0.97386733    -1.08800
O1973       O  0.22304836  0.72391084  0.52490366    -1.09500
C1974       C  0.17900448  0.68639667  0.99616934     1.05900
C1975       C  0.18726711  0.82312681  0.00157083     1.05900
C1976       C  0.18090624  0.74653444  0.56606321     1.08800
C1977       C  0.18369228  0.75891891  0.93062280     1.06600
H1978       H  0.21452396  0.78887291  0.53996166     0.32200
O1979       O  0.22554477  0.77784326  0.52853720    -1.29700
H1980       H  0.21138498  0.71729735  0.95765763     0.31800
O1981       O  0.22317284  0.72700508  0.96960974    -1.31400
O1982       O  0.29952716  0.82443602  0.00549282    -0.87200
O1983       O  0.29077420  0.67248275  0.99405979    -0.88700
O1984       O  0.25194384  0.79042175  0.57796052    -0.87300
O1985       O  0.25512729  0.79934707  0.92679329    -0.87300
O1986       O  0.25133706  0.71264494  0.91934258    -0.87000
O1987       O  0.24881499  0.70257359  0.57372679    -0.86800
O1988       O  0.32710518  0.74367547  0.54274112    -0.87200
O1989       O  0.32915923  0.74940984  0.95963250    -0.86700
O1990       O  0.29524970  0.74485732  0.57605159    -0.87700
O1991       O  0.29833840  0.75267382  0.92557295    -0.86900
O1992       O  0.25397759  0.82477826  0.54752345    -0.87300
O1993       O  0.24593885  0.67250874  0.53898601    -0.87000
O1994       O  0.24773563  0.67828462  0.94962294    -0.86700
O1995       O  0.25661995  0.82914791  0.96179755    -0.87100
O1996       O  0.32989461  0.78997970  0.00400760    -0.87400
O1997       O  0.32487898  0.70310053  0.99887527    -0.88700
Zr1998     Zr  0.25469674  0.80446745  0.00378277     2.83100
Zr1999     Zr  0.24813734  0.69673769  0.99537140     2.83500
Zr2000     Zr  0.25077274  0.74760312  0.55436111     2.84100
Zr2001     Zr  0.25269534  0.75420447  0.94504072     2.83400
Zr2002     Zr  0.30493463  0.74771832  0.00125008     2.84200
O2003       O  0.27765769  0.72403599  0.97109654    -1.09300
O2004       O  0.27996099  0.77463637  0.52900928    -1.08800
C2005       C  0.32380800  0.81516098  0.00501250     1.05900
C2006       C  0.31587419  0.67899569  0.99605266     1.08500
C2007       C  0.25286424  0.81555249  0.57174399     1.06100
C2008       C  0.25642689  0.82329012  0.93657775     1.06400
C2009       C  0.24939111  0.68755493  0.92541198     1.06000
C2010       C  0.24657870  0.67853197  0.56423473     1.05600
C2011       C  0.31986130  0.74325895  0.56751439     1.06000
C2012       C  0.32273904  0.75114615  0.93473205     1.05500
H2013       H  0.28683146  0.70825954  0.53591428     0.32200
O2014       O  0.27628759  0.72060260  0.52542735    -1.30400
H2015       H  0.29271947  0.78899825  0.96498468     0.32200
O2016       O  0.28049827  0.77781183  0.97498307    -1.31800
C2017       C  0.24427827  0.65604346  0.58374966    -0.05900
C2018       C  0.23361923  0.63119601  0.57568867    -0.05900
C2019       C  0.23123868  0.60995831  0.59387865    -0.24000
C2020       C  0.23964353  0.61298050  0.62056623     0.18200
C2021       C  0.25005419  0.63793729  0.62898674     0.15400
C2022       C  0.25229923  0.65923333  0.61062780    -0.19100
C2023       C  0.25821583  0.64118499  0.65565217    -0.20900
C2024       C  0.25646062  0.61993043  0.67376171    -0.13500
C2025       C  0.24672099  0.59474342  0.66570079     0.03200
C2026       C  0.23812595  0.59148526  0.63891049    -0.25600
H2027       H  0.22689356  0.62819080  0.55526610     0.08300
H2028       H  0.22294569  0.59111647  0.58700555     0.11900
H2029       H  0.26055581  0.67819776  0.61724288     0.11800
H2030       H  0.26619478  0.66016770  0.66250624     0.11600
H2031       H  0.26335594  0.62312192  0.69409300     0.12100
H2032       H  0.23036799  0.57230369  0.63232648     0.14100
C2033       C  0.25249101  0.83501474  0.59437564    -0.05900
C2034       C  0.25421644  0.82565034  0.62093237    -0.05900
C2035       C  0.25418563  0.84338951  0.64253527    -0.24000
C2036       C  0.25241333  0.87099380  0.63819650     0.18200
C2037       C  0.25039554  0.88082044  0.61170740     0.15400
C2038       C  0.25037292  0.86281482  0.58995328    -0.19100
C2039       C  0.24862994  0.90849431  0.60748371    -0.20900
C2040       C  0.24904555  0.92618929  0.62921280    -0.13500
C2041       C  0.25111101  0.91665831  0.65572392     0.03200
C2042       C  0.25273109  0.88887374  0.65996446    -0.25600
H2043       H  0.25580537  0.80445696  0.62514685     0.08300
H2044       H  0.25569395  0.83547107  0.66268691     0.11900
H2045       H  0.24879291  0.87046405  0.56969079     0.11800
H2046       H  0.24701523  0.91648976  0.58736853     0.11600
H2047       H  0.24764278  0.94743235  0.62516241     0.12100
H2048       H  0.25434977  0.88109569  0.68017184     0.14100
C2049       C  0.25347113  0.90572188  0.83531354    -0.05900
C2050       C  0.25038070  0.87920019  0.82632111    -0.05900
C2051       C  0.25088308  0.85789649  0.84429705    -0.24000
C2052       C  0.25464880  0.86260190  0.87166220     0.18200
C2053       C  0.25870245  0.88901484  0.88097682     0.15400
C2054       C  0.25808059  0.91044447  0.86276320    -0.19100
C2055       C  0.26291940  0.89351356  0.90838253    -0.20900
C2056       C  0.26240775  0.87213538  0.92642182    -0.13500
C2057       C  0.25773598  0.84584375  0.91738804     0.03200
C2058       C  0.25412409  0.84127789  0.88984127    -0.25600
H2059       H  0.24710019  0.87483263  0.80532244     0.08300
H2060       H  0.24802145  0.83773856  0.83679901     0.11900
H2061       H  0.26098911  0.93070341  0.86999210     0.11800
H2062       H  0.26634218  0.91357216  0.91590561     0.11600
H2063       H  0.26555994  0.87626093  0.94749377     0.12100
H2064       H  0.25055774  0.82116951  0.88248340     0.14100
C2065       C  0.25027905  0.58361127  0.84515904    -0.05900
C2066       C  0.24136168  0.57592698  0.87077787    -0.05900
C2067       C  0.23850855  0.59487199  0.89125457    -0.24000
C2068       C  0.24480849  0.62185381  0.88664384     0.18200
C2069       C  0.25392166  0.62982044  0.86104712     0.15400
C2070       C  0.25659712  0.61070960  0.84051779    -0.19100
C2071       C  0.26021216  0.65678491  0.85642340    -0.20900
C2072       C  0.25802064  0.67560213  0.87709877    -0.13500
C2073       C  0.24960917  0.66786214  0.90292430     0.03200
C2074       C  0.24256132  0.64089272  0.90731878    -0.25600
H2075       H  0.23603757  0.55531073  0.87486498     0.08300
H2076       H  0.23138600  0.58840131  0.91072471     0.11900
H2077       H  0.26359291  0.61696363  0.82091682     0.11800
H2078       H  0.26714576  0.66328195  0.83688846     0.11600
H2079       H  0.26356331  0.69615063  0.87297643     0.12100
H2080       H  0.23571890  0.63458289  0.92694639     0.14100
C2081       C  0.40488165  0.66617827  0.75019371    -0.05900
C2082       C  0.38007430  0.67419614  0.73916180    -0.05900
C2083       C  0.35777592  0.65720241  0.73959163    -0.24000
C2084       C  0.35962944  0.63182763  0.75129424     0.18200
C2085       C  0.38415329  0.62374389  0.76323620     0.15400
C2086       C  0.40669615  0.64087998  0.76246268    -0.19100
C2087       C  0.38577100  0.59847163  0.77531957    -0.20900
C2088       C  0.36389750  0.58087959  0.77419838    -0.13500
C2089       C  0.33983748  0.58828522  0.76125732     0.03200
C2090       C  0.33757912  0.61417419  0.75058627    -0.25600
H2091       H  0.37797886  0.69361339  0.72975188     0.08300
H2092       H  0.33913622  0.66382756  0.73049448     0.11900
H2093       H  0.42550528  0.63462958  0.77149914     0.11800
H2094       H  0.40416325  0.59203777  0.78503029     0.11600
H2095       H  0.36595600  0.56120738  0.78309002     0.12100
H2096       H  0.31912490  0.62013834  0.74066683     0.14100
C2097       C  0.34256386  0.91416631  0.74475778    -0.05900
C2098       C  0.36710825  0.92288533  0.73369449    -0.05900
C2099       C  0.38990277  0.90658186  0.73422445    -0.24000
C2100       C  0.38874778  0.88120672  0.74599534     0.18200
C2101       C  0.36406010  0.87200539  0.75681879     0.15400
C2102       C  0.34103019  0.88839699  0.75586558    -0.19100
C2103       C  0.36293197  0.84667847  0.76868828    -0.20900
C2104       C  0.38573421  0.83038626  0.76916694    -0.13500
C2105       C  0.41022472  0.83897911  0.75778014     0.03200
C2106       C  0.41175537  0.86476382  0.74677331    -0.25600
H2107       H  0.36877349  0.94260602  0.72483390     0.08300
H2108       H  0.40851407  0.91396108  0.72566790     0.11900
H2109       H  0.32229231  0.88153066  0.76462054     0.11800
H2110       H  0.34433999  0.83931084  0.77730906     0.11600
H2111       H  0.38404889  0.81068527  0.77807474     0.12100
H2112       H  0.43043634  0.87157285  0.73786924     0.14100
C2113       C  0.15570633  0.58381058  0.75876540    -0.05900
C2114       C  0.13126338  0.57537114  0.77044553    -0.05900
C2115       C  0.10824184  0.59151921  0.76949663    -0.24000
C2116       C  0.10902339  0.61641644  0.75658974     0.18200
C2117       C  0.13342866  0.62494326  0.74464434     0.15400
C2118       C  0.15660324  0.60880658  0.74606285    -0.19100
C2119       C  0.13431880  0.64950994  0.73132240    -0.20900
C2120       C  0.11173546  0.66600947  0.73070763    -0.13500
C2121       C  0.08759641  0.65843292  0.74333472     0.03200
C2122       C  0.08610158  0.63316050  0.75574568    -0.25600
H2123       H  0.12989447  0.55607786  0.78025206     0.08300
H2124       H  0.08982741  0.58445770  0.77873123     0.11900
H2125       H  0.17508330  0.61533469  0.73655222     0.11800
H2126       H  0.15266933  0.65622085  0.72172243     0.11600
H2127       H  0.11334628  0.68516329  0.72067513     0.12100
H2128       H  0.06764389  0.62705988  0.76559001     0.14100
C2129       C  0.09608314  0.83204285  0.75418111    -0.05900
C2130       C  0.12262273  0.82208555  0.75575394    -0.05900
C2131       C  0.14472702  0.83935788  0.75488067    -0.24000
C2132       C  0.14084158  0.86699131  0.75241237     0.18200
C2133       C  0.11430483  0.87719732  0.75107931     0.15400
C2134       C  0.09218269  0.85976721  0.75206308    -0.19100
C2135       C  0.11023955  0.90472570  0.74861002    -0.20900
C2136       C  0.13214391  0.92204374  0.74761292    -0.13500
C2137       C  0.15878523  0.91233186  0.74907927     0.03200
C2138       C  0.16295921  0.88459163  0.75133908    -0.25600
H2139       H  0.12641940  0.80081542  0.75747873     0.08300
H2140       H  0.16484696  0.83107280  0.75600458     0.11900
H2141       H  0.07196719  0.86781121  0.75076130     0.11800
H2142       H  0.09007813  0.91292109  0.74750231     0.11600
H2143       H  0.12802380  0.94324421  0.74578265     0.12100
H2144       H  0.18325426  0.87674226  0.75255025     0.14100
C2145       C  0.40779924  0.75539410  0.66351835    -0.05900
C2146       C  0.38310993  0.76673563  0.67149323    -0.05900
C2147       C  0.36066971  0.76574838  0.65478454    -0.24000
C2148       C  0.36236961  0.75327198  0.62975811     0.18200
C2149       C  0.38703762  0.74165706  0.62153483     0.15400
C2150       C  0.40966166  0.74291887  0.63839106    -0.19100
C2151       C  0.38864793  0.72905180  0.59654435    -0.20900
C2152       C  0.36640739  0.72884918  0.57948907    -0.13500
C2153       C  0.34201640  0.74102539  0.58715029     0.03200
C2154       C  0.33995025  0.75267525  0.61263651    -0.25600
H2155       H  0.38110412  0.77639990  0.69082967     0.08300
H2156       H  0.34198896  0.77474420  0.66145871     0.11900
H2157       H  0.42843895  0.73371599  0.63224832     0.11800
H2158       H  0.40722824  0.71977537  0.58997691     0.11600
H2159       H  0.36841594  0.71943694  0.56002766     0.12100
H2160       H  0.32130472  0.76219373  0.61869556     0.14100
C2161       C  0.15799531  0.74367844  0.58498407    -0.05900
C2162       C  0.13350628  0.73260960  0.57595847    -0.05900
C2163       C  0.11082899  0.73184536  0.59258280    -0.24000
C2164       C  0.11202073  0.74235596  0.61859648     0.18200
C2165       C  0.13663522  0.75320289  0.62794139     0.15400
C2166       C  0.15948594  0.75353155  0.61124743    -0.19100
C2167       C  0.13796231  0.76388472  0.65378783    -0.20900
C2168       C  0.11543021  0.76343279  0.67043163    -0.13500
C2169       C  0.09086829  0.75238375  0.66172432     0.03200
C2170       C  0.08917055  0.74215733  0.63547746    -0.25600
H2171       H  0.13181852  0.72467647  0.55582609     0.08300
H2172       H  0.09230524  0.72330387  0.58497247     0.11900
H2173       H  0.17812024  0.76227458  0.61837184     0.11800
H2174       H  0.15651372  0.77250303  0.66123612     0.11600
H2175       H  0.11729514  0.77177872  0.69038274     0.12100
H2176       H  0.07043381  0.73352756  0.62848411     0.14100
C2177       C  0.09288871  0.74238565  0.83685337    -0.05900
C2178       C  0.11657166  0.72849000  0.82997550    -0.05900
C2179       C  0.13916129  0.72899483  0.84672643    -0.24000
C2180       C  0.13879489  0.74380958  0.87057725     0.18200
C2181       C  0.11483955  0.75717418  0.87816307     0.15400
C2182       C  0.09195526  0.75609071  0.86147466    -0.19100
C2183       C  0.11435772  0.77187759  0.90205635    -0.20900
C2184       C  0.13724107  0.77331658  0.91824758    -0.13500
C2185       C  0.16123010  0.76011276  0.91101625     0.03200
C2186       C  0.16191243  0.74549399  0.88693943    -0.25600
H2187       H  0.11774367  0.71743882  0.81133298     0.08300
H2188       H  0.15712465  0.71826446  0.84070889     0.11900
H2189       H  0.07387363  0.76687084  0.86707558     0.11800
H2190       H  0.09624049  0.78221953  0.90829723     0.11600
H2191       H  0.13605633  0.78455139  0.93679174     0.12100
H2192       H  0.18004959  0.73476679  0.88141368     0.14100
C2193       C  0.40674595  0.74725497  0.83468218    -0.05900
C2194       C  0.38019426  0.74431500  0.82513767    -0.05900
C2195       C  0.35847499  0.74449783  0.84275544    -0.24000
C2196       C  0.36284431  0.74772443  0.87022401     0.18200
C2197       C  0.38941490  0.75055612  0.88001653     0.15400
C2198       C  0.41118413  0.75018212  0.86223065    -0.19100
C2199       C  0.39378510  0.75392034  0.90745452    -0.20900
C2200       C  0.37205326  0.75434169  0.92507653    -0.13500
C2201       C  0.34547784  0.75137328  0.91560418     0.03200
C2202       C  0.34106757  0.74818079  0.88804006    -0.25600
H2203       H  0.37608406  0.74192570  0.80395774     0.08300
H2204       H  0.33828037  0.74225784  0.83488088     0.11900
H2205       H  0.43147907  0.75257642  0.86981840     0.11800
H2206       H  0.41398856  0.75623143  0.91529346     0.11600
H2207       H  0.37615744  0.75702586  0.94621586     0.12100
H2208       H  0.32077219  0.74580538  0.88045684     0.14100
C2209       C  0.34656285  0.83445506  0.50149419    -0.05900
C2210       C  0.37339968  0.82581557  0.50402604    -0.05900
C2211       C  0.39460846  0.84417097  0.50371670    -0.24000
C2212       C  0.38949192  0.87159537  0.50088208     0.18200
C2213       C  0.36269224  0.88105122  0.00286766     0.15400
C2214       C  0.34131581  0.86261153  0.00368451    -0.19100
C2215       C  0.35771783  0.90863577  0.00134464    -0.20900
C2216       C  0.37910680  0.92678210  0.00048936    -0.13500
C2217       C  0.40566955  0.91768469  0.49827895     0.03200
C2218       C  0.41075068  0.89010001  0.50087192    -0.25600
H2219       H  0.37807674  0.80479103  0.50643711     0.08300
H2220       H  0.41503909  0.83690159  0.50584382     0.11900
H2221       H  0.32079400  0.86991964  0.00297852     0.11800
H2222       H  0.33728701  0.91619282  0.00081619     0.11600
H2223       H  0.37454373  0.94794519  0.99930289     0.12100
H2224       H  0.43123224  0.88296112  0.50302887     0.14100
C2225       C  0.33558275  0.65656923  0.49688400    -0.05900
C2226       C  0.33132721  0.63454285  0.97892314    -0.05900
C2227       C  0.35018225  0.61381151  0.97780202    -0.24000
C2228       C  0.37380799  0.61510811  0.99310518     0.18200
C2229       C  0.37870489  0.63778057  0.00936090     0.15400
C2230       C  0.36126090  0.65984096  0.50833151    -0.19100
C2231       C  0.40586182  0.64207067  0.51863424    -0.20900
C2232       C  0.42468727  0.62128288  0.51715998    -0.13500
C2233       C  0.41797403  0.59679559  0.50493595     0.03200
C2234       C  0.39254769  0.59405466  0.99249595    -0.25600
H2235       H  0.31325095  0.63308496  0.96688858     0.08300
H2236       H  0.34622977  0.59670484  0.96504375     0.11900
H2237       H  0.36655215  0.67863674  0.51783381     0.11800
H2238       H  0.41148704  0.66067583  0.52829234     0.11600
H2239       H  0.44441280  0.62426063  0.52588121     0.12100
H2240       H  0.38877308  0.57669108  0.98000633     0.14100
C2241       C  0.08564374  0.90542785  0.49497013    -0.05900
C2242       C  0.07650666  0.87885258  0.49241266    -0.05900
C2243       C  0.09461715  0.85744897  0.49218867    -0.24000
C2244       C  0.12228306  0.86207929  0.49473492     0.18200
C2245       C  0.13072461  0.88892753  0.00307751     0.15400
C2246       C  0.11238426  0.91045532  0.00290897    -0.19100
C2247       C  0.15791577  0.89305926  0.00930402    -0.20900
C2248       C  0.17612898  0.87170878  0.00876537    -0.13500
C2249       C  0.16822624  0.84525893  0.49869392     0.03200
C2250       C  0.14049767  0.84058573  0.49551830    -0.25600
H2251       H  0.05524289  0.87449481  0.49068331     0.08300
H2252       H  0.08693174  0.83723715  0.49033487     0.11900
H2253       H  0.11939588  0.93039197  0.00787168     0.11800
H2254       H  0.16516595  0.91286153  0.01442345     0.11600
H2255       H  0.19698709  0.87567911  0.01360888     0.12100
H2256       H  0.13301381  0.82027270  0.49387969     0.14100
C2257       C  0.09636679  0.58432311  0.50142385    -0.05900
C2258       C  0.12345786  0.57459911  0.99694276    -0.05900
C2259       C  0.14477614  0.59284624  0.99534686    -0.24000
C2260       C  0.13999374  0.62043949  0.99740430     0.18200
C2261       C  0.11322818  0.63023642  0.50489151     0.15400
C2262       C  0.09189290  0.61177000  0.50634737    -0.19100
C2263       C  0.10891531  0.65752355  0.50991553    -0.20900
C2264       C  0.13022501  0.67574232  0.50819022    -0.13500
C2265       C  0.15635734  0.66708324  0.50148470     0.03200
C2266       C  0.16130838  0.63893923  0.99556467    -0.25600
H2267       H  0.12790283  0.55347273  0.99498205     0.08300
H2268       H  0.16501331  0.58535090  0.99233000     0.11900
H2269       H  0.07188942  0.61878800  0.51142211     0.11800
H2270       H  0.08904354  0.66480739  0.51509861     0.11600
H2271       H  0.12618599  0.69666702  0.51216127     0.12100
H2272       H  0.18165735  0.63163947  0.99278363     0.14100
C2273       C  0.34410987  0.49254451  0.83549773    -0.05900
C2274       C  0.32916656  0.97966059  0.86828105    -0.05900
C2275       C  0.34617330  0.98000923  0.89059447    -0.24000
C2276       C  0.37009303  0.99481655  0.88998813     0.18200
C2277       C  0.36053339  0.50072499  0.88081397     0.15400
C2278       C  0.33923341  0.49909882  0.86249386    -0.19100
C2279       C  0.35588316  0.50872676  0.90733774    -0.20900
C2280       C  0.37732576  0.51119577  0.92523826    -0.13500
C2281       C  0.40380021  0.50559976  0.91696280     0.03200
C2282       C  0.38716333  0.99575389  0.91248361    -0.25600
H2283       H  0.31052968  0.96847762  0.86947620     0.08300
H2284       H  0.34043657  0.96900485  0.90841278     0.11900
H2285       H  0.31904054  0.50405673  0.86905238     0.11800
H2286       H  0.33569200  0.51323177  0.91419649     0.11600
H2287       H  0.37314640  0.51742604  0.94561089     0.12100
H2288       H  0.38213128  0.98453509  0.93039415     0.14100
C2289       C  0.16725523  0.49514990  0.84556600    -0.05900
C2290       C  0.17643023  0.48933285  0.87165083    -0.05900
C2291       C  0.15884785  0.48973862  0.89343315    -0.24000
C2292       C  0.13167347  0.49589228  0.88963468     0.18200
C2293       C  0.11954956  0.00598953  0.86217083     0.15400
C2294       C  0.13673203  0.00558318  0.83982714    -0.19100
C2295       C  0.09318411  0.01537065  0.85978948    -0.20900
C2296       C  0.07603987  0.01474087  0.88186572    -0.13500
C2297       C  0.08641313  0.50158028  0.90743162     0.03200
C2298       C  0.11378553  0.49592264  0.91142114    -0.25600
H2299       H  0.19730954  0.48434896  0.87531698     0.08300
H2300       H  0.16649898  0.48509815  0.91322467     0.11900
H2301       H  0.12985770  0.01327130  0.82070142     0.11800
H2302       H  0.08567748  0.02275427  0.84079286     0.11600
H2303       H  0.05558861  0.02175120  0.87921504     0.12100
H2304       H  0.12112801  0.49124110  0.93132707     0.14100
C2305       C  0.15525275  0.50130905  0.66719851    -0.05900
C2306       C  0.12907941  0.50728435  0.67630068    -0.05900
C2307       C  0.10688871  0.50537887  0.65914857    -0.24000
C2308       C  0.11024270  0.49730708  0.63245611     0.18200
C2309       C  0.13854103  0.98895237  0.62167322     0.15400
C2310       C  0.16124014  0.99058091  0.63864733    -0.19100
C2311       C  0.14035315  0.97698221  0.59633048    -0.20900
C2312       C  0.11803279  0.97660981  0.57918449    -0.13500
C2313       C  0.09163242  0.48857881  0.58785044     0.03200
C2314       C  0.08799406  0.49572041  0.61491830    -0.25600
H2315       H  0.12567945  0.51345969  0.69683083     0.08300
H2316       H  0.08707151  0.51021004  0.66680542     0.11900
H2317       H  0.18028763  0.98207671  0.63232980     0.11800
H2318       H  0.15919245  0.96843305  0.58950738     0.11600
H2319       H  0.12034550  0.96786128  0.55945294     0.12100
H2320       H  0.06811415  0.50106681  0.62207064     0.14100
C2321       C  0.40610043  0.49719643  0.58419439    -0.05900
C2322       C  0.38111436  0.00329638  0.57619419    -0.05900
C2323       C  0.35895958  0.00448831  0.59342668    -0.24000
C2324       C  0.36262565  0.00418359  0.62119937     0.18200
C2325       C  0.38413941  0.50929710  0.62621217     0.15400
C2326       C  0.40703099  0.50926686  0.60954455    -0.19100
C2327       C  0.38504034  0.52165719  0.65131928    -0.20900
C2328       C  0.36270403  0.52097038  0.66819517    -0.13500
C2329       C  0.33874511  0.50810239  0.66040523     0.03200
C2330       C  0.34028845  0.00511009  0.63869915    -0.25600
H2331       H  0.37719095  0.00351955  0.55485761     0.08300
H2332       H  0.33890994  0.00556643  0.58496182     0.11900
H2333       H  0.42531485  0.51917665  0.61600604     0.11800
H2334       H  0.40319103  0.53155788  0.65811460     0.11600
H2335       H  0.36431106  0.53038394  0.68768939     0.12100
H2336       H  0.32010635  0.00618371  0.63054362     0.14100
C2337       C  0.00229040  0.59666946  0.91831171    -0.05900
C2338       C  0.49190229  0.62218627  0.92686040    -0.05900
C2339       C  0.49030709  0.64366527  0.90896842    -0.24000
C2340       C  0.49485744  0.63966460  0.88154096     0.18200
C2341       C  0.00330802  0.61347608  0.87234095     0.15400
C2342       C  0.00407064  0.59205279  0.89053379    -0.19100
C2343       C  0.00525534  0.60878672  0.84474978    -0.20900
C2344       C  0.00415383  0.63006945  0.82669309    -0.13500
C2345       C  0.00097736  0.65657607  0.83576472     0.03200
C2346       C  0.49345486  0.66118045  0.86338232    -0.25600
H2347       H  0.48811304  0.62594059  0.94790050     0.08300
H2348       H  0.48550400  0.66340320  0.91660408     0.11900
H2349       H  0.00605083  0.57179827  0.88298824     0.11800
H2350       H  0.00761946  0.58862324  0.83709526     0.10800
H2351       H  0.00585846  0.62566342  0.80551299     0.12100
H2352       H  0.48865749  0.68106166  0.87066805     0.14100
C2353       C  0.00176161  0.91843228  0.90403732    -0.05900
C2354       C  0.01668569  0.92469828  0.88088801    -0.05900
C2355       C  0.01962522  0.90596839  0.86015066    -0.24000
C2356       C  0.00747233  0.88066656  0.86201965     0.18200
C2357       C  0.49043102  0.87427691  0.88566874     0.15400
C2358       C  0.48878598  0.89282432  0.90683459    -0.19100
C2359       C  0.47888709  0.84879479  0.88810272    -0.20900
C2360       C  0.48133270  0.83010117  0.86736602    -0.13500
C2361       C  0.99829542  0.83615319  0.84358123     0.03200
C2362       C  0.01021631  0.86165310  0.84129403    -0.25600
H2363       H  0.02654831  0.94394362  0.87905735     0.08300
H2364       H  0.03148068  0.91124321  0.84270603     0.11900
H2365       H  0.47833832  0.88742135  0.92512014     0.11800
H2366       H  0.46816324  0.84321999  0.90616662     0.11600
H2367       H  0.47224877  0.81055798  0.86986917     0.12100
H2368       H  0.02182095  0.86656784  0.82356670     0.14100
C2369       C  0.99321742  0.90594885  0.58394130    -0.05900
C2370       C  0.48690842  0.87969159  0.57465692    -0.05900
C2371       C  0.48614969  0.85834180  0.59283166    -0.24000
C2372       C  0.49408145  0.86206087  0.61955904     0.18200
C2373       C  0.99819057  0.88884204  0.62967930     0.15400
C2374       C  0.99880772  0.91021852  0.61131502    -0.19100
C2375       C  0.00444870  0.89299666  0.65674286    -0.20900
C2376       C  0.00487451  0.87149707  0.67467485    -0.13500
C2377       C  0.99909092  0.84524868  0.66601617     0.03200
C2378       C  0.49364137  0.84064783  0.63795693    -0.25600
H2379       H  0.48059864  0.87615332  0.55418953     0.08300
H2380       H  0.47938977  0.83890176  0.58595207     0.11900
H2381       H  0.00426934  0.93003836  0.61828087     0.11800
H2382       H  0.00933449  0.91285165  0.66401213     0.11600
H2383       H  0.01009951  0.87547589  0.69536098     0.12100
H2384       H  0.48705338  0.82103899  0.63137678     0.14100
C2385       C  0.00381335  0.58302052  0.59584115    -0.05900
C2386       C  0.00557529  0.57398170  0.62249568    -0.05900
C2387       C  0.00382693  0.59194096  0.64390780    -0.24000
C2388       C  0.00020691  0.61934617  0.63916878     0.18200
C2389       C  0.50424131  0.62929425  0.61290659     0.15400
C2390       C  0.50599566  0.61119648  0.59140642    -0.19100
C2391       C  0.50441837  0.65692401  0.60828665    -0.20900
C2392       C  0.50217078  0.67481456  0.62966117    -0.13500
C2393       C  0.99563843  0.66514485  0.65580915     0.03200
C2394       C  0.99868481  0.63754204  0.66062106    -0.25600
H2395       H  0.00819675  0.55292118  0.62688300     0.08300
H2396       H  0.00524474  0.58436060  0.66419648     0.11900
H2397       H  0.50756495  0.61882503  0.57113404     0.11800
H2398       H  0.50622387  0.66473457  0.58811274     0.11600
H2399       H  0.50245224  0.69603412  0.62528016     0.12100
H2400       H  0.00050472  0.63023138  0.68098483     0.14100
O2401       O  0.50584924  0.03945713  0.07913516    -0.87200
O2402       O  0.50210784  0.04928805  0.42626994    -0.87400
O2403       O  0.54909140  0.07472400  0.00210064    -0.89000
O2404       O  0.96174131  0.08018170  0.00644593    -0.87800
O2405       O  0.92724727  0.04989439  0.00267609    -0.87400
O2406       O  0.57957856  0.04033372  0.99855226    -0.88700
O2407       O  0.50325858  0.07932884  0.46097131    -0.87200
O2408       O  0.50673170  0.07400941  0.04888043    -0.86800
Zr2409     Zr  0.50429182  0.05496292  0.00365628     2.84300
O2410       O  0.97599354  0.03178493  0.47438159    -1.08800
O2411       O  0.53059074  0.02444545  0.02813040    -1.09500
C2412       C  0.50681536  0.06459617  0.07306587     1.05900
C2413       C  0.50265346  0.07338416  0.43577881     1.05900
C2414       C  0.57326349  0.06543910  0.99979670     1.08800
C2415       C  0.93652224  0.07396468  0.00530479     1.06600
H2416       H  0.54110820  0.03927350  0.46271778     0.32200
O2417       O  0.52955312  0.02817392  0.47355403    -1.29700
H2418       H  0.96460851  0.03872662  0.04074670     0.31800
O2419       O  0.97505520  0.02755128  0.02887405    -1.31400
O2420       O  0.50069615  0.46281686  0.42171993    -0.87200
O2421       O  0.50115499  0.45159085  0.07326353    -0.88700
O2422       O  0.57533700  0.99672463  0.45275137    -0.87300
O2423       O  0.92563756  0.00671565  0.45483374    -0.87300
O2424       O  0.92367237  0.00560495  0.04229214    -0.87000
O2425       O  0.57905544  0.99301867  0.04082632    -0.86800
O2426       O  0.53908846  0.42193483  0.99284378    -0.87200
O2427       O  0.95129437  0.42803275  0.99848224    -0.86700
O2428       O  0.57366539  0.45239454  0.99364543    -0.87700
O2429       O  0.92119771  0.46273229  0.00116966    -0.86900
O2430       O  0.54155393  0.00287006  0.42216775    -0.87300
O2431       O  0.54764354  0.99329358  0.07464136    -0.87000
O2432       O  0.95497680  0.99988157  0.07559841    -0.86700
O2433       O  0.95918698  0.00912817  0.42343304    -0.87100
O2434       O  0.49852729  0.42809400  0.45161558    -0.87400
O2435       O  0.49773411  0.42155091  0.03864679    -0.88700
Zr2436     Zr  0.50010539  0.00438442  0.44579828     2.83100
Zr2437     Zr  0.50223699  0.99742507  0.05454456     2.83500
Zr2438     Zr  0.55549048  0.99766246  0.99820408     2.84100
Zr2439     Zr  0.94617722  0.00470612  0.99961761     2.83400
Zr2440     Zr  0.49639790  0.44634266  0.99649603     2.84200
O2441       O  0.97226273  0.47373807  0.02468199    -1.09300
O2442       O  0.52568260  0.47409388  0.47109958    -1.08800
C2443       C  0.50032324  0.43763186  0.42763386     1.05900
C2444       C  0.49930533  0.42754888  0.06382294     1.08500
C2445       C  0.56626979  0.99928381  0.42847067     1.06100
C2446       C  0.93430850  0.00869066  0.43043366     1.06400
C2447       C  0.93050492  0.00367194  0.06708893     1.06000
C2448       C  0.57222355  0.99190944  0.06581067     1.05600
C2449       C  0.56436511  0.42822468  0.99262263     1.06000
C2450       C  0.92716473  0.43759965  0.00073927     1.05500
H2451       H  0.53772095  0.45772926  0.03325330     0.32200
O2452       O  0.52654564  0.47015536  0.02352936    -1.30400
H2453       H  0.96098829  0.46692677  0.45792960     0.32200
O2454       O  0.97243102  0.47673902  0.47008905    -1.31800
O2455       O  0.50029704  0.21118222  0.17231802    -0.87200
O2456       O  0.49920419  0.20345227  0.32482887    -0.87400
O2457       O  0.54444057  0.17476790  0.24646004    -0.89000
O2458       O  0.95362275  0.17553898  0.24787829    -0.87800
O2459       O  0.92314754  0.20995689  0.24876246    -0.87400
O2460       O  0.57589841  0.20825670  0.24804591    -0.88700
O2461       O  0.50070725  0.17311235  0.29025866    -0.87200
O2462       O  0.50015511  0.17673876  0.20280452    -0.86800
Zr2463     Zr  0.49973265  0.19662200  0.24764740     2.84300
O2464       O  0.97302814  0.22162182  0.27661956    -1.08800
O2465       O  0.52665730  0.22554109  0.22226425    -1.09500
C2466       C  0.50037160  0.18599669  0.17856966     1.05900
C2467       C  0.50037846  0.17932296  0.31539701     1.05900
C2468       C  0.56908535  0.18340499  0.24665484     1.08800
C2469       C  0.92925894  0.18497056  0.24811770     1.06600
H2470       H  0.53756506  0.21071888  0.28730152     0.32200
O2471       O  0.52619175  0.22234469  0.27684096    -1.29700
H2472       H  0.96091428  0.21484380  0.21021449     0.31800
O2473       O  0.97280383  0.22510316  0.22154516    -1.31400
O2474       O  0.50043491  0.29065523  0.32972259    -0.87200
O2475       O  0.49900306  0.29956099  0.17689577    -0.88700
O2476       O  0.57463106  0.24718602  0.29493287    -0.87300
O2477       O  0.92468795  0.25037249  0.29306561    -0.87300
O2478       O  0.92340494  0.25404813  0.20942692    -0.87000
O2479       O  0.57628726  0.25150527  0.20895855    -0.86800
O2480       O  0.54581892  0.32681840  0.25563063    -0.87200
O2481       O  0.95637399  0.32685181  0.25608430    -0.86700
O2482       O  0.57679603  0.29273145  0.25544054    -0.87700
O2483       O  0.92481189  0.29345264  0.25520085    -0.86900
O2484       O  0.54284332  0.24793104  0.32827744    -0.87300
O2485       O  0.54546843  0.25296884  0.17483090    -0.87000
O2486       O  0.95386201  0.25343558  0.17498901    -0.86700
O2487       O  0.95593400  0.24801071  0.32676864    -0.87100
O2488       O  0.50170006  0.32510783  0.29929485    -0.87400
O2489       O  0.49931800  0.33010354  0.21137186    -0.88700
Zr2490     Zr  0.49921368  0.24839249  0.30539977     2.83100
Zr2491     Zr  0.50039856  0.25428823  0.19587481     2.83500
Zr2492     Zr  0.55298528  0.25086440  0.25142162     2.84100
Zr2493     Zr  0.94770942  0.25133387  0.25090473     2.83400
Zr2494     Zr  0.50065701  0.30625226  0.25393810     2.84200
O2495       O  0.97366450  0.28000684  0.22466054    -1.09300
O2496       O  0.52662744  0.27690073  0.27989936    -1.08800
C2497       C  0.50139105  0.31575711  0.32351110     1.05900
C2498       C  0.49870026  0.32378650  0.18623359     1.08500
C2499       C  0.56741813  0.24679962  0.31977966     1.06100
C2500       C  0.93147830  0.24981958  0.31787163     1.06400
C2501       C  0.92944974  0.25369140  0.18439247     1.06000
C2502       C  0.56992205  0.25164507  0.18394048     1.05600
C2503       C  0.57023778  0.31763215  0.25641335     1.06000
C2504       C  0.93171202  0.31820281  0.25646566     1.05500
H2505       H  0.53902630  0.29141536  0.21471904     0.32200
O2506       O  0.52731559  0.28000843  0.22506470    -1.30400
H2507       H  0.96334320  0.28728852  0.29134139     0.32200
O2508       O  0.97442427  0.27669196  0.27956168    -1.31800
O2509       O  0.82662998  0.50448067  0.20812424    -0.87200
O2510       O  0.67415630  0.50084005  0.20807873    -0.87400
O2511       O  0.74936408  0.46047720  0.17210094    -0.89000
O2512       O  0.74850318  0.04746998  0.17625639    -0.87800
O2513       O  0.74911875  0.07806903  0.21064465    -0.87400
O2514       O  0.75063855  0.42579902  0.20215461    -0.88700
O2515       O  0.70585691  0.50200395  0.17464575    -0.87200
O2516       O  0.79483376  0.50347473  0.17476458    -0.86800
Zr2517     Zr  0.75021297  0.50252445  0.19654138     2.84300
O2518       O  0.72304646  0.02811489  0.22587778    -1.08800
O2519       O  0.77804433  0.47451007  0.22208450    -1.09500
C2520       C  0.81947368  0.50475293  0.18326154     1.05900
C2521       C  0.68121337  0.50147842  0.18311592     1.05900
C2522       C  0.74953197  0.43534449  0.17806811     1.08800
C2523       C  0.74869139  0.07171482  0.18541206     1.06600
H2524       H  0.71253025  0.46312416  0.21090679     0.32200
O2525       O  0.72380936  0.47369260  0.22256477    -1.29700
H2526       H  0.78856529  0.04098954  0.21550728     0.31800
O2527       O  0.77727175  0.02922773  0.22592636    -1.31400
O2528       O  0.67482217  0.49395329  0.29583922    -0.87200
O2529       O  0.82673819  0.49662914  0.29529033    -0.88700
O2530       O  0.70757569  0.42246923  0.24690589    -0.87300
O2531       O  0.70426945  0.07545944  0.25578866    -0.87300
O2532       O  0.79356770  0.07745576  0.25637809    -0.87000
O2533       O  0.79657924  0.42445097  0.24428437    -0.86800
O2534       O  0.75151632  0.45132943  0.32407811    -0.87200
O2535       O  0.75096913  0.03870085  0.32954442    -0.86700
O2536       O  0.75252967  0.42090500  0.28967504    -0.87700
O2537       O  0.74923740  0.07344186  0.29947200    -0.86900
O2538       O  0.67527847  0.45539248  0.24784740    -0.87300
O2539       O  0.82775333  0.45829866  0.24581846    -0.87000
O2540       O  0.82578746  0.04454064  0.25625922    -0.86700
O2541       O  0.67337067  0.04135082  0.25608676    -0.87100
O2542       O  0.70859162  0.49278433  0.32697279    -0.87400
O2543       O  0.79362126  0.49363618  0.32708168    -0.88700
Zr2544     Zr  0.69654012  0.49872667  0.25159728     2.83100
Zr2545     Zr  0.80440959  0.50040439  0.25122487     2.83500
Zr2546     Zr  0.75158150  0.44498010  0.24724708     2.84100
Zr2547     Zr  0.74950588  0.05473893  0.25417067     2.83400
Zr2548     Zr  0.75101202  0.49604324  0.30424327     2.84200
O2549       O  0.77702211  0.02669087  0.28044524    -1.09300
O2550       O  0.72407968  0.46992688  0.27625332    -1.08800
C2551       C  0.68364564  0.49225765  0.32024350     1.05900
C2552       C  0.81845343  0.49416687  0.31982385     1.08500
C2553       C  0.68286329  0.43075341  0.24655174     1.06100
C2554       C  0.67978060  0.06638220  0.25662223     1.06400
C2555       C  0.81832505  0.06924703  0.25734465     1.06000
C2556       C  0.82106232  0.43344878  0.24391945     1.05600
C2557       C  0.75240450  0.42716246  0.31481175     1.06000
C2558       C  0.74986490  0.06386881  0.32357835     1.05500
H2559       H  0.78999557  0.45894388  0.28643299     0.32200
O2560       O  0.77847575  0.47057168  0.27611511    -1.30400
H2561       H  0.71217033  0.03521421  0.29225311     0.32200
O2562       O  0.72359409  0.02520747  0.28026382    -1.31800
O2563       O  0.70273438  0.17765300  0.50055444    -0.87200
O2564       O  0.71303095  0.33010907  0.50211780    -0.87400
O2565       O  0.67363635  0.25263220  0.04092292    -0.89000
O2566       O  0.67415543  0.25734937  0.45781979    -0.87800
O2567       O  0.70543765  0.25574899  0.42401754    -0.87400
O2568       O  0.70429852  0.24757500  0.07484527    -0.88700
O2569       O  0.67851221  0.29985964  0.49951220    -0.87200
O2570       O  0.67248883  0.21219911  0.50372664    -0.86800
Zr2571     Zr  0.69746216  0.25444596  0.50011597     2.84300
O2572       O  0.72596477  0.28103004  0.47440543    -1.08800
O2573       O  0.72177416  0.22383657  0.02467209    -1.09500
C2574       C  0.67865790  0.18701139  0.50338869     1.05900
C2575       C  0.68783161  0.32405180  0.50040453     1.05900
C2576       C  0.67988200  0.24996472  0.06581127     1.08800
C2577       C  0.68089774  0.25728989  0.43291155     1.06600
H2578       H  0.71345732  0.28864679  0.03940987     0.32200
O2579       O  0.72455914  0.27762468  0.02806434    -1.29700
H2580       H  0.70970157  0.21626014  0.46033166     0.31800
O2581       O  0.72189007  0.22634160  0.47155478    -1.31400
O2582       O  0.79941457  0.32457755  0.50233467    -0.87200
O2583       O  0.79067540  0.17258595  0.49691048    -0.88700
O2584       O  0.75001899  0.28999846  0.07806165    -0.87300
O2585       O  0.75306906  0.29828266  0.42629016    -0.87300
O2586       O  0.74857146  0.21043414  0.42212876    -0.87000
O2587       O  0.74806822  0.20244943  0.07375111    -0.86800
O2588       O  0.82603082  0.24523271  0.04256739    -0.87200
O2589       O  0.82634898  0.24602644  0.45673350    -0.86700
O2590       O  0.79447754  0.24570194  0.07605666    -0.87700
O2591       O  0.79478719  0.25056612  0.42344749    -0.86900
O2592       O  0.75192325  0.32445936  0.04770624    -0.87300
O2593       O  0.74547914  0.17237544  0.03899315    -0.87000
O2594       O  0.74644264  0.17639148  0.45291433    -0.86700
O2595       O  0.75579553  0.32842252  0.46093825    -0.87100
O2596       O  0.82957312  0.28994199  0.50043524    -0.87400
O2597       O  0.82506044  0.20314751  0.49903043    -0.88700
Zr2598     Zr  0.75471727  0.30461606  0.50327976     2.83100
Zr2599     Zr  0.74772402  0.19675583  0.49762339     2.83500
Zr2600     Zr  0.74969360  0.24746938  0.05420907     2.84100
Zr2601     Zr  0.75041769  0.25327847  0.44544128     2.83400
Zr2602     Zr  0.80447732  0.24760895  0.49979064     2.84200
O2603       O  0.77600342  0.22349818  0.47139284    -1.09300
O2604       O  0.77856123  0.27481841  0.02882865    -1.08800
C2605       C  0.82358704  0.31516950  0.50110882     1.05900
C2606       C  0.81591788  0.17895263  0.49780384     1.08500
C2607       C  0.75065203  0.31511774  0.07188377     1.06100
C2608       C  0.75487575  0.32234145  0.43581199     1.06400
C2609       C  0.74726807  0.18540349  0.42858830     1.06000
C2610       C  0.74619366  0.17837029  0.06427136     1.05600
C2611       C  0.81914335  0.24494852  0.06740252     1.06000
C2612       C  0.81922560  0.24731135  0.43196883     1.05500
H2613       H  0.78607604  0.20846985  0.03589419     0.32200
O2614       O  0.77546598  0.22071754  0.02536066    -1.30400
H2615       H  0.79130095  0.28810546  0.46324740     0.32200
O2616       O  0.77932406  0.27731800  0.47395141    -1.31800
C2617       C  0.74448725  0.15581781  0.08385061    -0.05900
C2618       C  0.73203415  0.13157063  0.07658914    -0.05900
C2619       C  0.72989117  0.11038859  0.09491236    -0.24000
C2620       C  0.74044808  0.11279089  0.12090991     0.18200
C2621       C  0.75310163  0.13700225  0.12843158     0.15400
C2622       C  0.75494919  0.15832603  0.10998402    -0.19100
C2623       C  0.76373858  0.13950732  0.15432500    -0.20900
C2624       C  0.76179057  0.11842133  0.17265736    -0.13500
C2625       C  0.74941446  0.09411854  0.16558380     0.03200
C2626       C  0.73875734  0.09143963  0.13946409    -0.25600
H2627       H  0.72357586  0.12908334  0.05674439     0.08300
H2628       H  0.72000181  0.09209056  0.08869757     0.11900
H2629       H  0.76475489  0.17677943  0.11591413     0.11800
H2630       H  0.77366340  0.15782064  0.16043557     0.11600
H2631       H  0.77049968  0.12099724  0.19238050     0.12100
H2632       H  0.72910287  0.07287596  0.13363455     0.14100
C2633       C  0.74991543  0.33444813  0.09452070    -0.05900
C2634       C  0.75376335  0.32528847  0.12092385    -0.05900
C2635       C  0.75408410  0.34311398  0.14243543    -0.24000
C2636       C  0.75043126  0.37053300  0.13810704     0.18200
C2637       C  0.74586806  0.38004336  0.11181700     0.15400
C2638       C  0.74558744  0.36197180  0.09018200    -0.19100
C2639       C  0.74200796  0.40750309  0.10762139    -0.20900
C2640       C  0.74314640  0.42536618  0.12915437    -0.13500
C2641       C  0.74809579  0.41616238  0.15538251     0.03200
C2642       C  0.75150404  0.38856657  0.15965749    -0.25600
H2643       H  0.75699963  0.30425630  0.12502398     0.08300
H2644       H  0.75746364  0.33544539  0.16246078     0.11900
H2645       H  0.74219411  0.36936606  0.07004515     0.11800
H2646       H  0.73830509  0.41520653  0.08766697     0.11600
H2647       H  0.74013631  0.44646174  0.12518663     0.12100
H2648       H  0.75525989  0.38107784  0.17969397     0.14100
C2649       C  0.75382475  0.40478197  0.33432688    -0.05900
C2650       C  0.75707062  0.37831044  0.32517927    -0.05900
C2651       C  0.75859395  0.35703641  0.34319803    -0.24000
C2652       C  0.75690620  0.36172432  0.37078758     0.18200
C2653       C  0.75410773  0.38822152  0.38034571     0.15400
C2654       C  0.75249241  0.40956033  0.36210673    -0.19100
C2655       C  0.75284293  0.39290045  0.40798649    -0.20900
C2656       C  0.75368009  0.37150446  0.42593642    -0.13500
C2657       C  0.75563494  0.34495013  0.41662117     0.03200
C2658       C  0.75765072  0.34029590  0.38891994    -0.25600
H2659       H  0.75846718  0.37392717  0.30397601     0.08300
H2660       H  0.76096437  0.33688282  0.33551723     0.11900
H2661       H  0.75014150  0.42980384  0.36957938     0.11800
H2662       H  0.75092719  0.41307768  0.41573017     0.11600
H2663       H  0.75227804  0.37581365  0.44716111     0.12100
H2664       H  0.75950452  0.32001998  0.38139677     0.14100
C2665       C  0.74883233  0.08317269  0.34623602    -0.05900
C2666       C  0.74670290  0.07399393  0.37283843    -0.05900
C2667       C  0.74538563  0.09204135  0.39422497    -0.24000
C2668       C  0.74632146  0.11967886  0.38952103     0.18200
C2669       C  0.74834870  0.12914403  0.36291205     0.15400
C2670       C  0.74951540  0.11092531  0.34150425    -0.19100
C2671       C  0.74937235  0.15671669  0.35811947    -0.20900
C2672       C  0.74873193  0.17478122  0.37944882    -0.13500
C2673       C  0.74697654  0.16574797  0.40613722     0.03200
C2674       C  0.74555625  0.13799157  0.41095453    -0.25600
H2675       H  0.74594095  0.05278224  0.37720701     0.08300
H2676       H  0.74376168  0.08435675  0.41446005     0.11900
H2677       H  0.75109988  0.11843144  0.32118789     0.11800
H2678       H  0.75089598  0.16434633  0.33785201     0.11600
H2679       H  0.74984713  0.19594181  0.37492826     0.12100
H2680       H  0.74415642  0.13058835  0.43131853     0.14100
C2681       C  0.90604736  0.16631727  0.24785730    -0.05900
C2682       C  0.88096141  0.17504470  0.23794308    -0.05900
C2683       C  0.85840222  0.15836414  0.23872566    -0.24000
C2684       C  0.86035163  0.13260396  0.24959234     0.18200
C2685       C  0.88534823  0.12380141  0.25999021     0.15400
C2686       C  0.90804385  0.14058750  0.25888516    -0.19100
C2687       C  0.88730535  0.09822948  0.27117727    -0.20900
C2688       C  0.86515568  0.08108942  0.27100383    -0.13500
C2689       C  0.84041784  0.08912563  0.25981332     0.03200
C2690       C  0.83794999  0.11529274  0.24973979    -0.25600
H2691       H  0.87877519  0.19486367  0.22941633     0.08300
H2692       H  0.83947580  0.16558953  0.23073786     0.11900
H2693       H  0.92709283  0.13381124  0.26700089     0.11800
H2694       H  0.90613188  0.09125903  0.27961017     0.11600
H2695       H  0.86754090  0.06122505  0.27935612     0.12100
H2696       H  0.81902873  0.12178752  0.24111279     0.14100
C2697       C  0.84366930  0.41417767  0.24202466    -0.05900
C2698       C  0.86921240  0.42304495  0.23356561    -0.05900
C2699       C  0.89163026  0.40626658  0.23506724    -0.24000
C2700       C  0.88906359  0.38032611  0.24529436     0.18200
C2701       C  0.86334104  0.37089028  0.25302079     0.15400
C2702       C  0.84075595  0.38770403  0.25096288    -0.19100
C2703       C  0.86074086  0.34498764  0.26327568    -0.20900
C2704       C  0.88327819  0.32849474  0.26551640    -0.13500
C2705       C  0.90898204  0.33745697  0.25751104     0.03200
C2706       C  0.91175043  0.36366079  0.24780336    -0.25600
H2707       H  0.87200590  0.44326310  0.22625805     0.08300
H2708       H  0.91107121  0.41378669  0.22875027     0.11900
H2709       H  0.82122483  0.38060269  0.25752808     0.11800
H2710       H  0.84125558  0.33739622  0.26939017     0.11600
H2711       H  0.88041820  0.30837901  0.27301045     0.12100
H2712       H  0.93131060  0.37074364  0.24132613     0.14100
C2713       C  0.65684504  0.08567616  0.25779311    -0.05900
C2714       C  0.63122080  0.07686497  0.26617832    -0.05900
C2715       C  0.60882875  0.09383548  0.26515649    -0.24000
C2716       C  0.61142272  0.12010793  0.25571355     0.18200
C2717       C  0.63710790  0.12942780  0.24775721     0.15400
C2718       C  0.65963667  0.11227882  0.24899099    -0.19100
C2719       C  0.63980526  0.15572874  0.23849543    -0.20900
C2720       C  0.61750422  0.17274030  0.23753550    -0.13500
C2721       C  0.59180934  0.16391688  0.24565264     0.03200
C2722       C  0.58887989  0.13728519  0.25437186    -0.25600
H2723       H  0.62836249  0.05660321  0.27333482     0.08300
H2724       H  0.58942483  0.08631095  0.27158053     0.11900
H2725       H  0.67913450  0.11942274  0.24239619     0.11800
H2726       H  0.65924602  0.16326409  0.23219826     0.11600
H2727       H  0.62048463  0.19304964  0.23055648     0.12100
H2728       H  0.56932603  0.13019208  0.26086181     0.14100
C2729       C  0.59297861  0.33659876  0.25821315    -0.05900
C2730       C  0.61618760  0.32944885  0.27271434    -0.05900
C2731       C  0.63886165  0.34597498  0.27281265    -0.24000
C2732       C  0.63888587  0.36984975  0.25813203     0.18200
C2733       C  0.61562438  0.37718220  0.24344985     0.15400
C2734       C  0.59276147  0.36064535  0.24376740    -0.19100
C2735       C  0.61560053  0.40095988  0.22866861    -0.20900
C2736       C  0.63796776  0.41777240  0.22915177    -0.13500
C2737       C  0.66094167  0.41102849  0.24413712     0.03200
C2738       C  0.66156272  0.38670918  0.25817073    -0.25600
H2739       H  0.61680256  0.31090925  0.28394786     0.08300
H2740       H  0.65640301  0.34000182  0.28423230     0.11900
H2741       H  0.57512929  0.36607065  0.23218950     0.11800
H2742       H  0.59811506  0.40679436  0.21709870     0.11600
H2743       H  0.63720492  0.43636061  0.21800056     0.12100
H2744       H  0.67915951  0.38147675  0.26989304     0.14100
C2745       C  0.90608993  0.25286663  0.16573183    -0.05900
C2746       C  0.87967009  0.25564465  0.17586033    -0.05900
C2747       C  0.85730611  0.25393887  0.15900498    -0.24000
C2748       C  0.86071844  0.24937155  0.13156952     0.18200
C2749       C  0.88707012  0.24634484  0.12118059     0.15400
C2750       C  0.90952905  0.24813594  0.13823211    -0.19100
C2751       C  0.89058613  0.24164108  0.09382887    -0.20900
C2752       C  0.86838953  0.24051077  0.07683607    -0.13500
C2753       C  0.84197695  0.24410798  0.08668136     0.03200
C2754       C  0.83830381  0.24813887  0.11431264    -0.25600
H2755       H  0.87613340  0.25914784  0.19698561     0.08300
H2756       H  0.83734829  0.25625924  0.16745138     0.11900
H2757       H  0.92960360  0.24563527  0.13010845     0.11800
H2758       H  0.91055765  0.23910393  0.08547833     0.11600
H2759       H  0.87212094  0.23711855  0.05572629     0.12100
H2760       H  0.81820257  0.25091824  0.12227907     0.14100
C2761       C  0.65671464  0.25003979  0.08481842    -0.05900
C2762       C  0.63053887  0.25509295  0.07502255    -0.05900
C2763       C  0.60840646  0.25602693  0.09219581    -0.24000
C2764       C  0.61173674  0.25190760  0.11968429     0.18200
C2765       C  0.63774073  0.24634730  0.12984579     0.15400
C2766       C  0.66005939  0.24540884  0.11240744    -0.19100
C2767       C  0.64099651  0.24208779  0.15734706    -0.20900
C2768       C  0.61892526  0.24378437  0.17459901    -0.13500
C2769       C  0.59292468  0.24971742  0.16484454     0.03200
C2770       C  0.58951599  0.25349503  0.13715656    -0.25600
H2771       H  0.62701216  0.25865674  0.05391567     0.08300
H2772       H  0.58868133  0.26020548  0.08395079     0.11900
H2773       H  0.67993197  0.24128722  0.12033659     0.11800
H2774       H  0.66065870  0.23761210  0.16558447     0.11600
H2775       H  0.62235424  0.24037284  0.19574996     0.12100
H2776       H  0.56971639  0.25795224  0.12922664     0.14100
C2777       C  0.58949252  0.24448133  0.33951419    -0.05900
C2778       C  0.61224944  0.22909667  0.33295228    -0.05900
C2779       C  0.63461744  0.22840360  0.34983712    -0.24000
C2780       C  0.63491778  0.24346795  0.37349461     0.18200
C2781       C  0.61185066  0.25852396  0.38069683     0.15400
C2782       C  0.58910432  0.25868174  0.36382752    -0.19100
C2783       C  0.61218295  0.27355484  0.40438712    -0.20900
C2784       C  0.63501192  0.27362926  0.42074135    -0.13500
C2785       C  0.65811310  0.25882794  0.41375840     0.03200
C2786       C  0.65793974  0.24381489  0.38996853    -0.25600
H2787       H  0.61283519  0.21773806  0.31445933     0.08300
H2788       H  0.65190644  0.21650050  0.34409073     0.11900
H2789       H  0.57166357  0.27065726  0.36902738     0.11800
H2790       H  0.59479079  0.28523657  0.41030427     0.11600
H2791       H  0.63458258  0.28526268  0.43906729     0.12100
H2792       H  0.67540012  0.23193173  0.38465047     0.14100
C2793       C  0.90892900  0.25235988  0.33686045    -0.05900
C2794       C  0.88655954  0.26811867  0.32970097    -0.05900
C2795       C  0.86417007  0.26994430  0.34643523    -0.24000
C2796       C  0.86365183  0.25590818  0.37066360     0.18200
C2797       C  0.88612171  0.24004639  0.37805259     0.15400
C2798       C  0.90868105  0.23846324  0.36117424    -0.19100
C2799       C  0.88571462  0.22608952  0.40228646    -0.20900
C2800       C  0.86365315  0.22830942  0.41935613    -0.13500
C2801       C  0.84132848  0.24421409  0.41242805     0.03200
C2802       C  0.84124247  0.25770456  0.38778732    -0.25600
H2803       H  0.88642777  0.27912881  0.31103465     0.08300
H2804       H  0.84729881  0.28229521  0.34040943     0.11900
H2805       H  0.92572918  0.22608143  0.36666259     0.11800
H2806       H  0.90259973  0.21371628  0.40821782     0.11600
H2807       H  0.86407640  0.21752064  0.43817473     0.12100
H2808       H  0.82421757  0.27014812  0.38236428     0.14100
C2809       C  0.84488331  0.33537695  0.00432355    -0.05900
C2810       C  0.87176625  0.32650337  0.00411502    -0.05900
C2811       C  0.89305858  0.34474042  0.00418424    -0.24000
C2812       C  0.88802001  0.37230911  0.00435896     0.18200
C2813       C  0.86272318  0.38054449  0.49437650     0.15400
C2814       C  0.84143235  0.36196820  0.49428999    -0.19100
C2815       C  0.85808779  0.40769656  0.48888502    -0.20900
C2816       C  0.87931618  0.42607714  0.48959894    -0.13500
C2817       C  0.90449118  0.41833076  0.00294578     0.03200
C2818       C  0.90941575  0.39061936  0.00345696    -0.25600
H2819       H  0.87645042  0.30534714  0.00372414     0.08300
H2820       H  0.91351639  0.33724441  0.00381390     0.11900
H2821       H  0.82124934  0.36871677  0.48958004     0.11800
H2822       H  0.83802114  0.41475888  0.48419152     0.11600
H2823       H  0.87507494  0.44690091  0.48530442     0.12100
H2824       H  0.92989577  0.38319147  0.00275999     0.14100
C2825       C  0.83503571  0.15689261  0.99700542    -0.05900
C2826       C  0.82960740  0.13292221  0.48344675    -0.05900
C2827       C  0.84827852  0.11204989  0.48187763    -0.24000
C2828       C  0.87351910  0.11439610  0.49417793     0.18200
C2829       C  0.87999242  0.13808948  0.50827818     0.15400
C2830       C  0.86053865  0.15991020  0.00895454    -0.19100
C2831       C  0.90471431  0.14157138  0.02035547    -0.20900
C2832       C  0.92334353  0.12055307  0.01931764    -0.13500
C2833       C  0.91666822  0.09612158  0.00693550     0.03200
C2834       C  0.89236688  0.09343549  0.49254821    -0.25600
H2835       H  0.81037815  0.13060714  0.47350957     0.08300
H2836       H  0.84298496  0.09407447  0.47093257     0.11900
H2837       H  0.86579823  0.17864650  0.01858755     0.11800
H2838       H  0.91036374  0.16014492  0.03005984     0.11600
H2839       H  0.94295902  0.12336879  0.02833859     0.12100
H2840       H  0.88730451  0.07537196  0.48161194     0.14100
C2841       C  0.58421215  0.40596915  0.99146959    -0.05900
C2842       C  0.57768267  0.38171148  0.97872602    -0.05900
C2843       C  0.59622475  0.36061261  0.97777099    -0.24000
C2844       C  0.62158134  0.36319859  0.98986101     0.18200
C2845       C  0.63101203  0.38957864  0.49904200     0.15400
C2846       C  0.61233657  0.41075581  0.49923539    -0.19100
C2847       C  0.65848036  0.39439997  0.50327447    -0.20900
C2848       C  0.67686263  0.37318499  0.50347062    -0.13500
C2849       C  0.66575264  0.34480214  0.00127100     0.03200
C2850       C  0.64028182  0.34200531  0.98920664    -0.25600
H2851       H  0.55826270  0.37915466  0.96922642     0.08300
H2852       H  0.59069025  0.34223885  0.96763296     0.11900
H2853       H  0.61939197  0.43097613  0.50277871     0.11800
H2854       H  0.66574939  0.41457700  0.50659965     0.11600
H2855       H  0.69788718  0.37763766  0.50700269     0.12100
H2856       H  0.63512863  0.32348816  0.97910053     0.14100
C2857       C  0.59549171  0.08507176  0.99786621    -0.05900
C2858       C  0.62059968  0.07821825  0.48820122    -0.05900
C2859       C  0.64175259  0.09660221  0.48713668    -0.24000
C2860       C  0.63872705  0.12229119  0.49802097     0.18200
C2861       C  0.61363896  0.12975337  0.00594573     0.15400
C2862       C  0.59255602  0.11114883  0.00813097    -0.19100
C2863       C  0.61086534  0.15572500  0.01623377    -0.20900
C2864       C  0.63174005  0.17427222  0.01346362    -0.13500
C2865       C  0.65590095  0.16712890  0.00061048     0.03200
C2866       C  0.65982382  0.14093705  0.49651869    -0.25600
H2867       H  0.62347418  0.05864807  0.47930534     0.08300
H2868       H  0.66044739  0.09077145  0.47759469     0.11900
H2869       H  0.57397293  0.11691242  0.01795468     0.11800
H2870       H  0.59252558  0.16172991  0.02633583     0.11600
H2871       H  0.62910569  0.19415548  0.02172275     0.12100
H2872       H  0.67857575  0.13520731  0.48700624     0.14100
C2873       C  0.83842031  0.99289210  0.34293552    -0.05900
C2874       C  0.83096821  0.48015655  0.36627845    -0.05900
C2875       C  0.84818167  0.48086827  0.38836572    -0.24000
C2876       C  0.87313105  0.49369531  0.38648004     0.18200
C2877       C  0.88029625  0.00765358  0.36349608     0.15400
C2878       C  0.86274139  0.00705867  0.34144813    -0.19100
C2879       C  0.90408926  0.02260811  0.36244810    -0.20900
C2880       C  0.92119464  0.02350968  0.38459388    -0.13500
C2881       C  0.91472246  0.00967908  0.40829019     0.03200
C2882       C  0.89002023  0.49568363  0.40897862    -0.25600
H2883       H  0.81151189  0.47065093  0.36853725     0.08300
H2884       H  0.84173610  0.47187665  0.40705630     0.11900
H2885       H  0.86745725  0.01849452  0.32359608     0.11800
H2886       H  0.90950437  0.03354603  0.34449307     0.11600
H2887       H  0.93964147  0.03497400  0.38316530     0.12100
H2888       H  0.88389392  0.48690078  0.42788709     0.14100
C2889       C  0.66427734  0.99025501  0.34249284    -0.05900
C2890       C  0.67313046  0.98154996  0.36786066    -0.05900
C2891       C  0.65559248  0.98075463  0.38958089    -0.24000
C2892       C  0.62888096  0.98879216  0.38643386     0.18200
C2893       C  0.61922726  0.49433279  0.36130347     0.15400
C2894       C  0.63662248  0.49386334  0.33910256    -0.19100
C2895       C  0.59173895  0.49886923  0.35779691    -0.20900
C2896       C  0.57479141  0.50026367  0.37998012    -0.13500
C2897       C  0.58494605  0.99812140  0.40547417     0.03200
C2898       C  0.61155442  0.98950178  0.40858674    -0.25600
H2899       H  0.69383357  0.97560495  0.37108132     0.08300
H2900       H  0.66306922  0.97434591  0.40893799     0.11900
H2901       H  0.62870136  0.49722840  0.31914815     0.11800
H2902       H  0.58335357  0.50154630  0.33793140     0.11600
H2903       H  0.55362041  0.50389108  0.37635494     0.12100
H2904       H  0.61882190  0.98352663  0.42817120     0.14100
C2905       C  0.65848143  0.00199235  0.16476974    -0.05900
C2906       C  0.63286055  0.01091403  0.17293620    -0.05900
C2907       C  0.61078233  0.00957159  0.15568325    -0.24000
C2908       C  0.61368245  0.99925655  0.12975605     0.18200
C2909       C  0.64062930  0.49142941  0.11847346     0.15400
C2910       C  0.66256510  0.49217916  0.13655891    -0.19100
C2911       C  0.64369872  0.48186741  0.09216325    -0.20900
C2912       C  0.62176910  0.48167935  0.07437673    -0.13500
C2913       C  0.59463320  0.98942499  0.08561556     0.03200
C2914       C  0.59155303  0.99853784  0.11211578    -0.25600
H2915       H  0.62981412  0.01900523  0.19285058     0.08300
H2916       H  0.59140645  0.01670523  0.16263425     0.11900
H2917       H  0.68216792  0.48506419  0.13021230     0.11800
H2918       H  0.66309499  0.47473398  0.08525695     0.11600
H2919       H  0.62489640  0.47440755  0.05416300     0.12100
H2920       H  0.57221898  0.00614226  0.11869206     0.14100
C2921       C  0.90795420  0.00640356  0.08659798    -0.05900
C2922       C  0.88422370  0.48293880  0.07875107    -0.05900
C2923       C  0.86174945  0.48263956  0.09564743    -0.24000
C2924       C  0.86278917  0.49508755  0.12079075     0.18200
C2925       C  0.88833377  0.99980239  0.13094412     0.15400
C2926       C  0.91057592  0.99851457  0.11346471    -0.19100
C2927       C  0.89074059  0.99129160  0.15750487    -0.20900
C2928       C  0.86859756  0.99223504  0.17466969    -0.13500
C2929       C  0.84337343  0.00167266  0.16577622     0.03200
C2930       C  0.84027560  0.49481686  0.13805668    -0.25600
H2931       H  0.88268312  0.47342126  0.05929440     0.08300
H2932       H  0.84351444  0.47280805  0.08895935     0.11900
H2933       H  0.92965710  0.99081739  0.12061232     0.11800
H2934       H  0.90975336  0.98380194  0.16502822     0.11600
H2935       H  0.87128383  0.98532982  0.19505525     0.12100
H2936       H  0.82202258  0.48454886  0.13207840     0.14100
C2937       C  0.50234518  0.09609329  0.41653163    -0.05900
C2938       C  0.99405496  0.12034487  0.42420114    -0.05900
C2939       C  0.99202325  0.14139784  0.40594032    -0.24000
C2940       C  0.00044693  0.13802487  0.37937841     0.18200
C2941       C  0.50463125  0.11336741  0.37080081     0.15400
C2942       C  0.50544225  0.09177141  0.38882199    -0.19100
C2943       C  0.50801274  0.10913185  0.34326909    -0.20900
C2944       C  0.50673271  0.13060223  0.32543853    -0.13500
C2945       C  0.50187849  0.15680109  0.33470160     0.03200
C2946       C  0.99788857  0.15905147  0.36088772    -0.25600
H2947       H  0.98700330  0.12352099  0.44449043     0.08300
H2948       H  0.98365882  0.16030151  0.41258020     0.11900
H2949       H  0.50852271  0.07166563  0.38124208     0.11800
H2950       H  0.51161947  0.08919830  0.33549377     0.10800
H2951       H  0.50955824  0.12658432  0.30429746     0.12100
H2952       H  0.98910408  0.17787681  0.36725069     0.14100
C2953       C  0.50210677  0.41818180  0.40521670    -0.05900
C2954       C  0.50436457  0.42713434  0.37857675    -0.05900
C2955       C  0.50505649  0.40890094  0.35735900    -0.24000
C2956       C  0.50362904  0.38133845  0.36233232     0.18200
C2957       C  0.00643507  0.37233520  0.38742566     0.15400
C2958       C  0.00612441  0.39086165  0.40859325    -0.19100
C2959       C  0.00766967  0.34481306  0.39264697    -0.20900
C2960       C  0.00675882  0.32635839  0.37162865    -0.13500
C2961       C  0.50201280  0.33525464  0.34602280     0.03200
C2962       C  0.50347111  0.36295080  0.34104595    -0.25600
H2963       H  0.50531413  0.44830156  0.37403095     0.08300
H2964       H  0.50646321  0.41638417  0.33703214     0.11900
H2965       H  0.00699305  0.38363035  0.42904465     0.11800
H2966       H  0.00901892  0.33752100  0.41304730     0.11600
H2967       H  0.00753401  0.30524141  0.37642400     0.12100
H2968       H  0.50435915  0.37028125  0.32062917     0.14100
C2969       C  0.49868833  0.40512816  0.08339951    -0.05900
C2970       C  0.98928205  0.37835468  0.07481620    -0.05900
C2971       C  0.98820749  0.35743522  0.09342601    -0.24000
C2972       C  0.99332714  0.36226350  0.12063989     0.18200
C2973       C  0.49965068  0.38900292  0.12963821     0.15400
C2974       C  0.50101935  0.41010005  0.11109672    -0.19100
C2975       C  0.50178589  0.39399962  0.15718232    -0.20900
C2976       C  0.50090581  0.37287568  0.17549191    -0.13500
C2977       C  0.49800375  0.34623887  0.16667076     0.03200
C2978       C  0.99287032  0.34120531  0.13932296    -0.25600
H2979       H  0.98524109  0.37393426  0.05395933     0.08300
H2980       H  0.98349597  0.33742438  0.08649205     0.11900
H2981       H  0.50379556  0.43037665  0.11831707     0.11800
H2982       H  0.50437705  0.41423334  0.16457490     0.11600
H2983       H  0.50296852  0.37745154  0.19660269     0.12100
H2984       H  0.98840666  0.32108642  0.13252960     0.14100
C2985       C  0.50739217  0.08403407  0.09572727    -0.05900
C2986       C  0.50944075  0.07494130  0.12237611    -0.05900
C2987       C  0.50853263  0.09292036  0.14387063    -0.24000
C2988       C  0.50541333  0.12043118  0.13926277     0.18200
C2989       C  0.00003961  0.12895334  0.11263509     0.15400
C2990       C  0.00082869  0.11067027  0.09127373    -0.19100
C2991       C  0.99582306  0.15624433  0.10781519    -0.20900
C2992       C  0.99521699  0.17443192  0.12905984    -0.13500
C2993       C  0.50093937  0.16633292  0.15604928     0.03200
C2994       C  0.50411459  0.13866436  0.16078504    -0.25600
H2995       H  0.51155357  0.05381253  0.12671513     0.08300
H2996       H  0.51004534  0.08525436  0.16412121     0.11900
H2997       H  0.99805052  0.11788005  0.07097848     0.11800
H2998       H  0.99304795  0.16356614  0.08756950     0.11600
H2999       H  0.99194318  0.19538175  0.12458390     0.12100
H3000       H  0.50576949  0.13129101  0.18114070     0.14100
O3001       O  0.50489679  0.03979856  0.57801347    -0.87200
O3002       O  0.50182312  0.04925479  0.92662170    -0.87400
O3003       O  0.54927998  0.07446631  0.50270166    -0.89000
O3004       O  0.96279449  0.07954566  0.50550930    -0.87800
O3005       O  0.92829336  0.04951698  0.50002221    -0.87400
O3006       O  0.57986517  0.04019067  0.49923714    -0.88700
O3007       O  0.50330706  0.07947414  0.96116578    -0.87200
O3008       O  0.50703838  0.07417066  0.54761898    -0.86800
Zr3009     Zr  0.50425297  0.05467400  0.50304239     2.84300
O3010       O  0.97447997  0.03235618  0.97477408    -1.08800
O3011       O  0.52991382  0.02409556  0.52789729    -1.09500
C3012       C  0.50670858  0.06488779  0.57176745     1.05900
C3013       C  0.50268383  0.07341081  0.93594318     1.05900
C3014       C  0.57355984  0.06530008  0.50087826     1.08800
C3015       C  0.93759440  0.07351323  0.50321273     1.06600
H3016       H  0.54047993  0.03932304  0.96318236     0.32200
O3017       O  0.52914598  0.02815967  0.97417061    -1.29700
H3018       H  0.96543742  0.03874654  0.54029767     0.31800
O3019       O  0.97594716  0.02746994  0.52856766    -1.31400
O3020       O  0.49591857  0.46187929  0.92123600    -0.87200
O3021       O  0.49658181  0.45189429  0.57284284    -0.88700
O3022       O  0.57519750  0.99900708  0.95282983    -0.87300
O3023       O  0.92325893  0.00842761  0.95625496    -0.87300
O3024       O  0.92418322  0.00464696  0.54156141    -0.87000
O3025       O  0.57798355  0.99229432  0.54126717    -0.86800
O3026       O  0.53946145  0.42231764  0.49555406    -0.87200
O3027       O  0.95251477  0.42775878  0.49510427    -0.86700
O3028       O  0.57431367  0.45238056  0.49671144    -0.87700
O3029       O  0.92208049  0.46230000  0.49694207    -0.86900
O3030       O  0.54105278  0.00440219  0.92243194    -0.87300
O3031       O  0.54629720  0.99286110  0.57488434    -0.87000
O3032       O  0.95546879  0.00012357  0.57511142    -0.86700
O3033       O  0.95660342  0.00983141  0.92463839    -0.87100
O3034       O  0.49581277  0.42717508  0.95135329    -0.87400
O3035       O  0.49465667  0.42184723  0.53810117    -0.88700
Zr3036     Zr  0.49963122  0.00453996  0.94655985     2.83100
Zr3037     Zr  0.50108368  0.99724043  0.55398477     2.83500
Zr3038     Zr  0.55531927  0.99765457  0.49817354     2.84100
Zr3039     Zr  0.94735559  0.00427510  0.49901844     2.83400
Zr3040     Zr  0.49682788  0.44720268  0.49637686     2.84200
O3041       O  0.97196397  0.47395989  0.52381914    -1.09300
O3042       O  0.52286552  0.47397558  0.96962901    -1.08800
C3043       C  0.49650669  0.43669725  0.92724930     1.05900
C3044       C  0.49508473  0.42783809  0.56330146     1.08500
C3045       C  0.56597569  0.00223210  0.92871015     1.06100
C3046       C  0.93174801  0.01019110  0.93179598     1.06400
C3047       C  0.93087175  0.00307532  0.56646600     1.06000
C3048       C  0.57095934  0.99124685  0.56621063     1.05600
C3049       C  0.56483702  0.42830346  0.49579796     1.06000
C3050       C  0.92825071  0.43717203  0.49589641     1.05500
H3051       H  0.53567156  0.45788019  0.53519972     0.32200
O3052       O  0.52548546  0.47068279  0.52491493    -1.30400
H3053       H  0.95912055  0.46704569  0.95908430     0.32200
O3054       O  0.97104447  0.47671504  0.97089486    -1.31800
O3055       O  0.50034727  0.21128769  0.67033263    -0.87200
O3056       O  0.49910760  0.20249154  0.82343891    -0.87400
O3057       O  0.54264116  0.17261419  0.74664446    -0.89000
O3058       O  0.95433996  0.17554100  0.74808608    -0.87800
O3059       O  0.92386538  0.20989577  0.74736786    -0.87400
O3060       O  0.57378026  0.20621966  0.74909169    -0.88700
O3061       O  0.49894282  0.17194889  0.78897650    -0.87200
O3062       O  0.49936399  0.17674454  0.70070588    -0.86800
Zr3063     Zr  0.49849363  0.19547115  0.74621953     2.84300
O3064       O  0.97291870  0.22276899  0.77589876    -1.08800
O3065       O  0.52586653  0.22402962  0.72073108    -1.09500
C3066       C  0.50012009  0.18617688  0.67650447     1.05900
C3067       C  0.49939098  0.17827374  0.81411438     1.05900
C3068       C  0.56717154  0.18138797  0.74827563     1.08800
C3069       C  0.92993493  0.18485543  0.74786260     1.06600
H3070       H  0.53650826  0.20931544  0.78592086     0.32200
O3071       O  0.52529957  0.22099694  0.77535738    -1.29700
H3072       H  0.96262969  0.21466028  0.70928493     0.31800
O3073       O  0.97408904  0.22518725  0.72080538    -1.31400
O3074       O  0.49886039  0.29057589  0.82779501    -0.87200
O3075       O  0.49949792  0.29871485  0.67541226    -0.88700
O3076       O  0.57525182  0.24521751  0.79270009    -0.87300
O3077       O  0.92318483  0.24883288  0.78984463    -0.87300
O3078       O  0.92566008  0.25345491  0.70683134    -0.87000
O3079       O  0.57549118  0.24826923  0.70749759    -0.86800
O3080       O  0.54670083  0.32450066  0.75438931    -0.87200
O3081       O  0.95652724  0.32770802  0.75435757    -0.86700
O3082       O  0.57719742  0.29014736  0.75246833    -0.87700
O3083       O  0.92522654  0.29404928  0.75316374    -0.86900
O3084       O  0.54385367  0.24625738  0.82634017    -0.87300
O3085       O  0.54499972  0.25239884  0.67334715    -0.87000
O3086       O  0.95677645  0.25226799  0.67305081    -0.86700
O3087       O  0.95336670  0.24756883  0.82446018    -0.87100
O3088       O  0.50040360  0.32502826  0.79729080    -0.87400
O3089       O  0.50170170  0.32931612  0.70977812    -0.88700
Zr3090     Zr  0.49946053  0.24758794  0.80415604     2.83100
Zr3091     Zr  0.50010934  0.25349575  0.69456024     2.83500
Zr3092     Zr  0.55227977  0.24911413  0.74995034     2.84100
Zr3093     Zr  0.94812090  0.25171127  0.74907425     2.83400
Zr3094     Zr  0.50093930  0.30519667  0.75236623     2.84200
O3095       O  0.97466757  0.28028382  0.72338070    -1.09300
O3096       O  0.52694517  0.27595832  0.77862363    -1.08800
C3097       C  0.49921498  0.31572722  0.82149106     1.05900
C3098       C  0.50062395  0.32293689  0.68464722     1.08500
C3099       C  0.56841647  0.24490356  0.81763289     1.06100
C3100       C  0.92910726  0.24770620  0.81482708     1.06400
C3101       C  0.93218941  0.25245314  0.68198139     1.06000
C3102       C  0.56930458  0.24985339  0.68250163     1.05600
C3103       C  0.57106866  0.31509045  0.75397006     1.06000
C3104       C  0.93196461  0.31885385  0.75478535     1.05500
H3105       H  0.53924396  0.28986515  0.71328838     0.32200
O3106       O  0.52730399  0.27869555  0.72363106    -1.30400
H3107       H  0.96197654  0.28794767  0.78966296     0.32200
O3108       O  0.97366799  0.27748831  0.77835807    -1.31800
O3109       O  0.82550749  0.50063070  0.70940607    -0.87200
O3110       O  0.67367842  0.50302503  0.70704235    -0.87400
O3111       O  0.75328747  0.46133284  0.67189874    -0.89000
O3112       O  0.74916578  0.04750391  0.67594200    -0.87800
O3113       O  0.75023494  0.07842366  0.71007487    -0.87400
O3114       O  0.75207757  0.42661484  0.70196244    -0.88700
O3115       O  0.70546428  0.50231602  0.67367080    -0.87200
O3116       O  0.79489040  0.50432169  0.67522171    -0.86800
Zr3117     Zr  0.74983959  0.50360189  0.69611566     2.84300
O3118       O  0.72356486  0.02852225  0.72507179    -1.08800
O3119       O  0.77617924  0.47507728  0.72274881    -1.09500
C3120       C  0.81927632  0.50233539  0.68433624     1.05900
C3121       C  0.68077641  0.50276352  0.68217437     1.05900
C3122       C  0.75373371  0.43617222  0.67793476     1.08800
C3123       C  0.74969834  0.07179113  0.68495130     1.06600
H3124       H  0.71134832  0.46404767  0.70940594     0.32200
O3125       O  0.72251365  0.47451981  0.72127545    -1.29700
H3126       H  0.78918952  0.04107192  0.71575364     0.31800
O3127       O  0.77762287  0.02941783  0.72599379    -1.31400
O3128       O  0.67173121  0.49787449  0.79344639    -0.87200
O3129       O  0.82360866  0.49664191  0.79761276    -0.88700
O3130       O  0.70436890  0.42404452  0.74608670    -0.87300
O3131       O  0.70379102  0.07563487  0.75388920    -0.87300
O3132       O  0.79424322  0.07724705  0.75705791    -0.87000
O3133       O  0.79384346  0.42356200  0.74666061    -0.86800
O3134       O  0.74817109  0.45136456  0.82358004    -0.87200
O3135       O  0.74858567  0.03987208  0.82893814    -0.86700
O3136       O  0.74885638  0.42101779  0.78907594    -0.87700
O3137       O  0.74911426  0.07443562  0.79857853    -0.86900
O3138       O  0.67302690  0.45765561  0.74794771    -0.87300
O3139       O  0.82527088  0.45713135  0.74896872    -0.87000
O3140       O  0.82601591  0.04394231  0.75790665    -0.86700
O3141       O  0.67347667  0.04114438  0.75184542    -0.87100
O3142       O  0.70469935  0.49539121  0.82526700    -0.87400
O3143       O  0.78985586  0.49360443  0.82874791    -0.88700
Zr3144     Zr  0.69566193  0.50010956  0.75029436     2.83100
Zr3145     Zr  0.80273049  0.49981051  0.75249818     2.83500
Zr3146     Zr  0.74914493  0.44540821  0.74698501     2.84100
Zr3147     Zr  0.74958732  0.05538090  0.75355446     2.83400
Zr3148     Zr  0.74821359  0.49632952  0.80431100     2.84200
O3149       O  0.77635234  0.02718077  0.78031231    -1.09300
O3150       O  0.72154685  0.47060481  0.77569276    -1.08800
C3151       C  0.67988609  0.49630228  0.81804468     1.05900
C3152       C  0.81483206  0.49433450  0.82205579     1.08500
C3153       C  0.67979661  0.43282741  0.74673711     1.06100
C3154       C  0.67941146  0.06611208  0.75290521     1.06400
C3155       C  0.81891185  0.06873348  0.75873678     1.06000
C3156       C  0.81843881  0.43232397  0.74710259     1.05600
C3157       C  0.74880566  0.42722411  0.81420121     1.06000
C3158       C  0.74849850  0.06500152  0.82271256     1.05500
H3159       H  0.78678077  0.45878253  0.78720336     0.32200
O3160       O  0.77566762  0.47052283  0.77658459    -1.30400
H3161       H  0.71128840  0.03653688  0.79074662     0.32200
O3162       O  0.72292037  0.02625645  0.77919582    -1.31800
O3163       O  0.70236316  0.17731511  0.99646362    -0.87200
O3164       O  0.71080920  0.32905247  0.00214388    -0.87400
O3165       O  0.67457540  0.25697151  0.54214326    -0.89000
O3166       O  0.67475927  0.25777444  0.95585494    -0.87800
O3167       O  0.70651331  0.25641313  0.92249044    -0.87400
O3168       O  0.70554020  0.25128838  0.57572938    -0.88700
O3169       O  0.67659122  0.29841547  0.99930324    -0.87200
O3170       O  0.67201327  0.21180546  0.99909763    -0.86800
Zr3171     Zr  0.69695521  0.25384177  0.99864144     2.84300
O3172       O  0.72553115  0.28088322  0.97336345    -1.08800
O3173       O  0.72255727  0.22445323  0.52595895    -1.09500
C3174       C  0.67819741  0.18668918  0.99840769     1.05900
C3175       C  0.68565084  0.32262892  0.00075382     1.05900
C3176       C  0.68115974  0.25503997  0.56694279     1.08800
C3177       C  0.68184539  0.25792050  0.93103719     1.06600
H3178       H  0.71527967  0.28971640  0.54028159     0.32200
O3179       O  0.72585096  0.27818199  0.52894822    -1.29700
H3180       H  0.71027148  0.21655679  0.95832269     0.31800
O3181       O  0.72213664  0.22651714  0.96998864    -1.31400
O3182       O  0.79808238  0.32485929  0.00423219    -0.87200
O3183       O  0.79003684  0.17259691  0.99534680    -0.88700
O3184       O  0.75328442  0.28994195  0.57926191    -0.87300
O3185       O  0.75377274  0.29883077  0.92585327    -0.87300
O3186       O  0.75019677  0.21181531  0.92022240    -0.87000
O3187       O  0.74774885  0.20334667  0.57489731    -0.86800
O3188       O  0.82739782  0.24386644  0.54187617    -0.87200
O3189       O  0.82722439  0.24544103  0.95763260    -0.86700
O3190       O  0.79619147  0.24412958  0.57573895    -0.87700
O3191       O  0.79610471  0.24915506  0.92394173    -0.86900
O3192       O  0.75501604  0.32408805  0.54858042    -0.87300
O3193       O  0.74524449  0.17292809  0.54041051    -0.87000
O3194       O  0.74760743  0.17765020  0.95088603    -0.86700
O3195       O  0.75473206  0.32905114  0.96051615    -0.87100
O3196       O  0.82853580  0.29049920  0.00198422    -0.87400
O3197       O  0.82415255  0.20325284  0.99944221    -0.88700
Zr3198     Zr  0.75338727  0.30470475  0.00273381     2.83100
Zr3199     Zr  0.74738951  0.19673379  0.99623915     2.83500
Zr3200     Zr  0.75097864  0.24798209  0.55496983     2.84100
Zr3201     Zr  0.75110268  0.25380305  0.94467906     2.83400
Zr3202     Zr  0.80393258  0.24795294  0.99992355     2.84200
O3203       O  0.77604510  0.22396424  0.97098832    -1.09300
O3204       O  0.78008178  0.27485611  0.52923465    -1.08800
C3205       C  0.82237471  0.31565002  0.00352363     1.05900
C3206       C  0.81515238  0.17905355  0.99726590     1.08500
C3207       C  0.75430474  0.31495769  0.57289530     1.06100
C3208       C  0.75472123  0.32292392  0.93535376     1.06400
C3209       C  0.74908110  0.18680615  0.92663266     1.06000
C3210       C  0.74557763  0.17926007  0.56556346     1.05600
C3211       C  0.82072921  0.24283731  0.56673932     1.06000
C3212       C  0.82049005  0.24593398  0.93272826     1.05500
H3213       H  0.78683852  0.20850461  0.53649501     0.32200
O3214       O  0.77624763  0.22082559  0.52602726    -1.30400
H3215       H  0.79147340  0.28893470  0.96336415     0.32200
O3216       O  0.77931393  0.27800455  0.97372575    -1.31800
C3217       C  0.74312119  0.15705733  0.58515861    -0.05900
C3218       C  0.72700007  0.13467502  0.57931343    -0.05900
C3219       C  0.72459801  0.11356079  0.59764568    -0.24000
C3220       C  0.73860290  0.11422080  0.62208031     0.18200
C3221       C  0.75484623  0.13668934  0.62811123     0.15400
C3222       C  0.75686193  0.15797927  0.60975419    -0.19100
C3223       C  0.76890503  0.13750288  0.65241707    -0.20900
C3224       C  0.76677543  0.11648155  0.67073295    -0.13500
C3225       C  0.75084621  0.09395326  0.66510586     0.03200
C3226       C  0.73682761  0.09285265  0.64054445    -0.25600
H3227       H  0.71599105  0.13365429  0.56060635     0.08300
H3228       H  0.71189382  0.09666805  0.59263837     0.11900
H3229       H  0.76946722  0.17506958  0.61441278     0.11800
H3230       H  0.78159164  0.15444465  0.65730280     0.11600
H3231       H  0.77803745  0.11764008  0.68927587     0.12100
H3232       H  0.72442648  0.07559836  0.63596553     0.14100
C3233       C  0.75452941  0.33443888  0.59543614    -0.05900
C3234       C  0.75269372  0.32532689  0.62210818    -0.05900
C3235       C  0.75298287  0.34331548  0.64351598    -0.24000
C3236       C  0.75503326  0.37084965  0.63878192     0.18200
C3237       C  0.75701034  0.38032245  0.61217403     0.15400
C3238       C  0.75661221  0.36212295  0.59069060    -0.19100
C3239       C  0.75925076  0.40787438  0.60749880    -0.20900
C3240       C  0.75879056  0.42591563  0.62889595    -0.13500
C3241       C  0.75600302  0.41680148  0.65544890     0.03200
C3242       C  0.75469984  0.38906446  0.66020738    -0.25600
H3243       H  0.75098538  0.30418620  0.62655287     0.08300
H3244       H  0.75146949  0.33567375  0.66378182     0.11900
H3245       H  0.75797241  0.36955612  0.57033611     0.11800
H3246       H  0.76105212  0.41551282  0.58726080     0.11600
H3247       H  0.76024075  0.44709218  0.62453720     0.12100
H3248       H  0.75285584  0.38159357  0.68051517     0.14100
C3249       C  0.75006970  0.40481046  0.83360012    -0.05900
C3250       C  0.74777014  0.37819511  0.82461334    -0.05900
C3251       C  0.74897147  0.35691335  0.84264161    -0.24000
C3252       C  0.75248661  0.36177875  0.87004010     0.18200
C3253       C  0.75540012  0.38834986  0.87930975     0.15400
C3254       C  0.75419678  0.40968381  0.86107138    -0.19100
C3255       C  0.75913341  0.39314058  0.90671652    -0.20900
C3256       C  0.75921766  0.37186567  0.92485709    -0.13500
C3257       C  0.75572585  0.34534939  0.91592942     0.03200
C3258       C  0.75273304  0.34050271  0.88832954    -0.25600
H3259       H  0.74482594  0.37373156  0.80358273     0.08300
H3260       H  0.74689441  0.33665227  0.83516510     0.11900
H3261       H  0.75641462  0.43002258  0.86831664     0.11800
H3262       H  0.76164223  0.41336047  0.91417239     0.11600
H3263       H  0.76183494  0.37626415  0.94594483     0.12100
H3264       H  0.75011221  0.32022884  0.88104167     0.14100
C3265       C  0.74716739  0.08453899  0.84499688    -0.05900
C3266       C  0.73746853  0.07673914  0.87030223    -0.05900
C3267       C  0.73563489  0.09523100  0.89123522    -0.24000
C3268       C  0.74357051  0.12185263  0.88730264     0.18200
C3269       C  0.75325086  0.12994392  0.86192924     0.15400
C3270       C  0.75501491  0.11127840  0.84098886    -0.19100
C3271       C  0.76096065  0.15659762  0.85789800    -0.20900
C3272       C  0.75921337  0.17506506  0.87883517    -0.13500
C3273       C  0.74994329  0.16720804  0.90431671     0.03200
C3274       C  0.74206276  0.14047711  0.90833257    -0.25600
H3275       H  0.73096955  0.05635937  0.87385594     0.08300
H3276       H  0.72798950  0.08870811  0.91049199     0.11900
H3277       H  0.76260313  0.11756885  0.82161729     0.11800
H3278       H  0.76840736  0.16315862  0.83857288     0.11600
H3279       H  0.76555381  0.19546890  0.87513945     0.12100
H3280       H  0.73470036  0.13415487  0.92777448     0.14100
C3281       C  0.90663402  0.16606335  0.74871422    -0.05900
C3282       C  0.88075484  0.17534132  0.74169050    -0.05900
C3283       C  0.85821519  0.15874945  0.74366552    -0.24000
C3284       C  0.86089724  0.13236389  0.75263765     0.18200
C3285       C  0.88665850  0.12279492  0.76005341     0.15400
C3286       C  0.90935750  0.13962207  0.75798362    -0.19100
C3287       C  0.88930135  0.09643221  0.76913734    -0.20900
C3288       C  0.86700190  0.07940504  0.76965463    -0.13500
C3289       C  0.84139733  0.08831629  0.76127055     0.03200
C3290       C  0.83839300  0.11520088  0.75355864    -0.25600
H3291       H  0.87783545  0.19560325  0.73456043     0.08300
H3292       H  0.83869150  0.16652843  0.73794414     0.11900
H3293       H  0.92899980  0.13224186  0.76385068     0.11800
H3294       H  0.90874474  0.08875939  0.77526024     0.11600
H3295       H  0.86999618  0.05894310  0.77616518     0.12100
H3296       H  0.81887083  0.12244504  0.74715093     0.14100
C3297       C  0.84122284  0.41316784  0.74532533    -0.05900
C3298       C  0.86576996  0.42195276  0.73426750    -0.05900
C3299       C  0.88848484  0.40555453  0.73426964    -0.24000
C3300       C  0.88737564  0.38003077  0.74566847     0.18200
C3301       C  0.86280264  0.37076976  0.75670444     0.15400
C3302       C  0.83974095  0.38723872  0.75614326    -0.19100
C3303       C  0.86188847  0.34535515  0.76846346    -0.20900
C3304       C  0.88480106  0.32914235  0.76874339    -0.13500
C3305       C  0.90916021  0.33786927  0.75717502     0.03200
C3306       C  0.91040919  0.36361277  0.74606735    -0.25600
H3307       H  0.86748947  0.44178527  0.72567286     0.08300
H3308       H  0.90703437  0.41300840  0.72564010     0.11900
H3309       H  0.82105417  0.38030055  0.76493965     0.11800
H3310       H  0.84341991  0.33791980  0.77728219     0.11600
H3311       H  0.88334245  0.30945694  0.77772736     0.12100
H3312       H  0.92897562  0.37050678  0.73698831     0.14100
C3313       C  0.65572613  0.08434830  0.75264717    -0.05900
C3314       C  0.62962203  0.07355390  0.74923513    -0.05900
C3315       C  0.60696939  0.09000851  0.74804687    -0.24000
C3316       C  0.60973815  0.11773907  0.75018307     0.18200
C3317       C  0.63572279  0.12878108  0.75404333     0.15400
C3318       C  0.65848381  0.11210812  0.75534992    -0.19100
C3319       C  0.63864659  0.15642823  0.75620093    -0.20900
C3320       C  0.61629743  0.17302452  0.75418039    -0.13500
C3321       C  0.59022846  0.16250694  0.75005836     0.03200
C3322       C  0.58708005  0.13462544  0.74828942    -0.25600
H3323       H  0.62654036  0.05220358  0.74713952     0.08300
H3324       H  0.58733570  0.08102348  0.74517176     0.11900
H3325       H  0.67827517  0.12077177  0.75816680     0.11800
H3326       H  0.65829510  0.16530620  0.75927508     0.11600
H3327       H  0.61967908  0.19435629  0.75594480     0.12100
H3328       H  0.56723857  0.12612857  0.74529099     0.14100
C3329       C  0.59414397  0.33389226  0.75463705    -0.05900
C3330       C  0.62054983  0.32410408  0.75822134    -0.05900
C3331       C  0.64267965  0.34128408  0.75714638    -0.24000
C3332       C  0.63893603  0.36861919  0.75237036     0.18200
C3333       C  0.61251856  0.37866926  0.74899297     0.15400
C3334       C  0.59034639  0.36134747  0.75032066    -0.19100
C3335       C  0.60865312  0.40590210  0.74407217    -0.20900
C3336       C  0.63063851  0.42310999  0.74277615    -0.13500
C3337       C  0.65709490  0.41354497  0.74644284     0.03200
C3338       C  0.66109244  0.38608559  0.75101250    -0.25600
H3339       H  0.62422057  0.30302166  0.76168463     0.08300
H3340       H  0.66270957  0.33314761  0.75985631     0.11900
H3341       H  0.57022096  0.36918259  0.74738825     0.11800
H3342       H  0.58859455  0.41394764  0.74130000     0.11600
H3343       H  0.62676536  0.44410792  0.73904881     0.12100
H3344       H  0.68127174  0.37839821  0.75396363     0.14100
C3345       C  0.90893687  0.25072953  0.66332264    -0.05900
C3346       C  0.88268915  0.25472193  0.67350640    -0.05900
C3347       C  0.86014770  0.25242920  0.65713143    -0.24000
C3348       C  0.86313967  0.24620494  0.63004637     0.18200
C3349       C  0.88922385  0.24147716  0.61957660     0.15400
C3350       C  0.91198836  0.24373116  0.63624758    -0.19100
C3351       C  0.89208500  0.23499589  0.59248651    -0.20900
C3352       C  0.86960250  0.23447876  0.57575800    -0.13500
C3353       C  0.84363987  0.24036880  0.58569877     0.03200
C3354       C  0.84051945  0.24543457  0.61315107    -0.25600
H3355       H  0.87937658  0.25981209  0.69434291     0.08300
H3356       H  0.84037804  0.25590521  0.66562305     0.11900
H3357       H  0.93190642  0.24004943  0.62818919     0.11800
H3358       H  0.91177237  0.23093400  0.58407206     0.11600
H3359       H  0.87274627  0.22997572  0.55475832     0.12100
H3360       H  0.82073010  0.24982566  0.62117478     0.14100
C3361       C  0.65828786  0.25718263  0.58600104    -0.05900
C3362       C  0.63292649  0.26589976  0.57661779    -0.05900
C3363       C  0.61040540  0.26590378  0.59330156    -0.24000
C3364       C  0.61264075  0.25733489  0.61985847     0.18200
C3365       C  0.63808845  0.24924395  0.62974635     0.15400
C3366       C  0.66075507  0.24932487  0.61284679    -0.19100
C3367       C  0.64040116  0.24088263  0.65634357    -0.20900
C3368       C  0.61789246  0.24067861  0.67302504    -0.13500
C3369       C  0.59241315  0.24882696  0.66357710     0.03200
C3370       C  0.58991997  0.25688125  0.63672402    -0.25600
H3371       H  0.63027685  0.27246165  0.55610506     0.08300
H3372       H  0.59120478  0.27241605  0.58534206     0.11900
H3373       H  0.68006199  0.24263602  0.62040144     0.11800
H3374       H  0.65965723  0.23455683  0.66431277     0.11600
H3375       H  0.62057960  0.23415968  0.69354008     0.12100
H3376       H  0.57053390  0.26328384  0.62911516     0.14100
C3377       C  0.59095646  0.24304787  0.83715216    -0.05900
C3378       C  0.61483170  0.22974141  0.82976263    -0.05900
C3379       C  0.63750204  0.23020915  0.84635041    -0.24000
C3380       C  0.63697879  0.24428465  0.87062344     0.18200
C3381       C  0.61289016  0.25717340  0.87863860     0.15400
C3382       C  0.58994025  0.25620960  0.86203868    -0.19100
C3383       C  0.61232062  0.27120139  0.90292641    -0.20900
C3384       C  0.63516939  0.27221572  0.91920202    -0.13500
C3385       C  0.65922990  0.25932580  0.91160823     0.03200
C3386       C  0.66006241  0.24559988  0.88703341    -0.25600
H3387       H  0.61609409  0.21919686  0.81082726     0.08300
H3388       H  0.65560465  0.21994581  0.83994095     0.11900
H3389       H  0.57173495  0.26661542  0.86794643     0.11800
H3390       H  0.59414411  0.28126721  0.90944655     0.11600
H3391       H  0.63390997  0.28290568  0.93805846     0.12100
H3392       H  0.67829711  0.23524031  0.88113703     0.14100
C3393       C  0.90585460  0.24661958  0.83330289    -0.05900
C3394       C  0.87962160  0.25124961  0.82349268    -0.05900
C3395       C  0.85747447  0.25083316  0.84064794    -0.24000
C3396       C  0.86103917  0.24577663  0.86797372     0.18200
C3397       C  0.88714581  0.24022746  0.87785121     0.15400
C3398       C  0.90936710  0.24077569  0.86052532    -0.19100
C3399       C  0.89068842  0.23465721  0.90503875    -0.20900
C3400       C  0.86884566  0.23582794  0.92252921    -0.13500
C3401       C  0.84290018  0.24262720  0.91324980     0.03200
C3402       C  0.83906605  0.24684142  0.88568334    -0.25600
H3403       H  0.87613384  0.25561697  0.80252130     0.08300
H3404       H  0.83763399  0.25486777  0.83260330     0.11900
H3405       H  0.92934501  0.23680491  0.86827861     0.11800
H3406       H  0.91045055  0.22991470  0.91289495     0.11600
H3407       H  0.87248600  0.23182281  0.94353660     0.12100
H3408       H  0.81922572  0.25171591  0.87811304     0.14100
C3409       C  0.84611646  0.33478613  0.50039705    -0.05900
C3410       C  0.87254221  0.32648795  0.50607987    -0.05900
C3411       C  0.89377429  0.34481648  0.50611283    -0.24000
C3412       C  0.88909559  0.37187504  0.50040481     0.18200
C3413       C  0.86119812  0.38164898  0.00500616     0.15400
C3414       C  0.83981404  0.36317690  0.00500418    -0.19100
C3415       C  0.85627230  0.40929569  0.00533763    -0.20900
C3416       C  0.87768418  0.42744462  0.00435952    -0.13500
C3417       C  0.90570110  0.41764856  0.49545228     0.03200
C3418       C  0.91036453  0.39038684  0.50080955    -0.25600
H3419       H  0.87680885  0.30579250  0.51090014     0.08300
H3420       H  0.91386442  0.33783275  0.51081753     0.11900
H3421       H  0.81928627  0.37050000  0.00524193     0.11800
H3422       H  0.83586068  0.41689389  0.00603862     0.11600
H3423       H  0.87315823  0.44864982  0.00436146     0.12100
H3424       H  0.93050463  0.38355634  0.50557909     0.14100
C3425       C  0.83581857  0.15674311  0.49709276    -0.05900
C3426       C  0.82846958  0.13235423  0.98484645    -0.05900
C3427       C  0.84690596  0.11126552  0.98443402    -0.24000
C3428       C  0.87227765  0.11419753  0.99629495     0.18200
C3429       C  0.87918875  0.13869866  0.00868230     0.15400
C3430       C  0.86114189  0.15915497  0.50960520    -0.19100
C3431       C  0.90529233  0.14033157  0.52057133    -0.20900
C3432       C  0.92406174  0.11949379  0.51862144    -0.13500
C3433       C  0.91781344  0.09580494  0.50467966     0.03200
C3434       C  0.89090566  0.09307221  0.99571155    -0.25600
H3435       H  0.80908868  0.12953141  0.97534244     0.08300
H3436       H  0.84133657  0.09266728  0.97473368     0.11900
H3437       H  0.86611301  0.17732161  0.52041852     0.11800
H3438       H  0.91061729  0.15824177  0.53161201     0.11600
H3439       H  0.94339087  0.12177205  0.52837808     0.12100
H3440       H  0.88551934  0.07442347  0.98598157     0.14100
C3441       C  0.58466086  0.40589029  0.49520108    -0.05900
C3442       C  0.57611366  0.37939649  0.49079799    -0.05900
C3443       C  0.59460360  0.35827363  0.49047077    -0.24000
C3444       C  0.62206710  0.36310073  0.49469515     0.18200
C3445       C  0.62831827  0.38742521  0.00289068     0.15400
C3446       C  0.60970338  0.40865621  0.00348535    -0.19100
C3447       C  0.65358271  0.39002312  0.01511321    -0.20900
C3448       C  0.67213722  0.36900801  0.01416951    -0.13500
C3449       C  0.66820918  0.34661545  0.49951103     0.03200
C3450       C  0.64065618  0.34185260  0.49488289    -0.25600
H3451       H  0.55505317  0.37492281  0.48754285     0.08300
H3452       H  0.58737415  0.33810349  0.48704630     0.11900
H3453       H  0.61491083  0.42713222  0.01364171     0.11800
H3454       H  0.65903586  0.40835179  0.02537462     0.11600
H3455       H  0.69145355  0.37158815  0.02387909     0.12100
H3456       H  0.63358327  0.32160457  0.49155895     0.14100
C3457       C  0.59592592  0.08507201  0.50018964    -0.05900
C3458       C  0.61973762  0.07792858  0.98521278    -0.05900
C3459       C  0.64071714  0.09635918  0.98284945    -0.24000
C3460       C  0.63789419  0.12230705  0.99313455     0.18200
C3461       C  0.61408713  0.12956432  0.51014073     0.15400
C3462       C  0.59281337  0.11093917  0.51111090    -0.19100
C3463       C  0.61112647  0.15543504  0.52077733    -0.20900
C3464       C  0.63208575  0.17410622  0.51871979    -0.13500
C3465       C  0.65654857  0.16716051  0.50631398     0.03200
C3466       C  0.65888646  0.14094874  0.99069382    -0.25600
H3467       H  0.62238460  0.05811252  0.97680237     0.08300
H3468       H  0.65912086  0.09033573  0.97287844     0.11900
H3469       H  0.57392514  0.11653750  0.52042857     0.11800
H3470       H  0.59247881  0.16134917  0.53035662     0.11600
H3471       H  0.62916575  0.19399161  0.52687421     0.12100
H3472       H  0.67742894  0.13515600  0.98081341     0.14100
C3473       C  0.83550710  0.99522341  0.84463863    -0.05900
C3474       C  0.82696573  0.48089862  0.86904512    -0.05900
C3475       C  0.84404679  0.48188642  0.89133941    -0.24000
C3476       C  0.86881730  0.49521582  0.88974943     0.18200
C3477       C  0.87832760  0.00775267  0.86451111     0.15400
C3478       C  0.86157738  0.00553465  0.84199686    -0.19100
C3479       C  0.90397589  0.01890729  0.86204209    -0.20900
C3480       C  0.92065561  0.02089622  0.88435690    -0.13500
C3481       C  0.91210529  0.01170227  0.90964427     0.03200
C3482       C  0.88615386  0.49661855  0.91209801    -0.25600
H3483       H  0.80776046  0.47083525  0.87102849     0.08300
H3484       H  0.83775202  0.47247287  0.90987166     0.11900
H3485       H  0.86845505  0.01278077  0.82269868     0.11800
H3486       H  0.91128019  0.02581518  0.84278763     0.11600
H3487       H  0.94062035  0.02915464  0.88164681     0.12100
H3488       H  0.88053579  0.48697397  0.93073552     0.14100
C3489       C  0.66324032  0.99619448  0.84185821    -0.05900
C3490       C  0.67166512  0.98540070  0.86657412    -0.05900
C3491       C  0.65461404  0.98513028  0.88861200    -0.24000
C3492       C  0.62866018  0.99546905  0.88641850     0.18200
C3493       C  0.61424999  0.49557716  0.85780853     0.15400
C3494       C  0.63213107  0.49632384  0.83590221    -0.19100
C3495       C  0.58636984  0.49660994  0.85390580    -0.20900
C3496       C  0.56898840  0.49658002  0.87594367    -0.13500
C3497       C  0.58492986  0.00407230  0.90607422     0.03200
C3498       C  0.61124947  0.99452213  0.90843561    -0.25600
H3499       H  0.69160240  0.97696786  0.86893756     0.08300
H3500       H  0.66167328  0.97660893  0.90729981     0.11900
H3501       H  0.62434538  0.49761367  0.81565633     0.11800
H3502       H  0.57801979  0.49776032  0.83388325     0.11600
H3503       H  0.54755350  0.49774704  0.87223127     0.12100
H3504       H  0.61799614  0.98581532  0.92716506     0.14100
C3505       C  0.65985335  0.00196591  0.66299250    -0.05900
C3506       C  0.63541989  0.01414532  0.67043979    -0.05900
C3507       C  0.61301021  0.01342286  0.65359938    -0.24000
C3508       C  0.61433447  0.00046032  0.62876660     0.18200
C3509       C  0.63638896  0.48591093  0.62190372     0.15400
C3510       C  0.65934184  0.48787706  0.63854803    -0.19100
C3511       C  0.63704692  0.47122497  0.59792369    -0.20900
C3512       C  0.61464603  0.47094893  0.58080482    -0.13500
C3513       C  0.59338605  0.98842451  0.58601250     0.03200
C3514       C  0.59179497  0.00020339  0.61156450    -0.25600
H3515       H  0.63358902  0.02433774  0.68952405     0.08300
H3516       H  0.59459410  0.02309658  0.66003088     0.11900
H3517       H  0.67771478  0.47747845  0.63316836     0.11800
H3518       H  0.65513383  0.46063933  0.59200410     0.11600
H3519       H  0.61610013  0.46032116  0.56192968     0.12100
H3520       H  0.57340937  0.01020669  0.61760123     0.14100
C3521       C  0.90802021  0.00528115  0.58596661    -0.05900
C3522       C  0.87972561  0.50405357  0.57469878    -0.05900
C3523       C  0.85754776  0.50524259  0.59193502    -0.24000
C3524       C  0.86104013  0.50302887  0.61966475     0.18200
C3525       C  0.88881225  0.00038525  0.63090130     0.15400
C3526       C  0.91093956  0.99866233  0.61320187    -0.19100
C3527       C  0.89166831  0.99342054  0.65789756    -0.20900
C3528       C  0.86971667  0.99486541  0.67532969    -0.13500
C3529       C  0.84417529  0.00322489  0.66630289     0.03200
C3530       C  0.83874007  0.50425620  0.63721459    -0.25600
H3531       H  0.87599420  0.50586789  0.55340462     0.08300
H3532       H  0.83762993  0.50789540  0.58351284     0.11900
H3533       H  0.93027350  0.99186651  0.62057134     0.11800
H3534       H  0.91090099  0.98667614  0.66555827     0.11600
H3535       H  0.87277434  0.98898803  0.69598889     0.12100
H3536       H  0.81869635  0.50712320  0.62915345     0.14100
C3537       C  0.50275994  0.09597225  0.91635391    -0.05900
C3538       C  0.00258287  0.12293763  0.92635543    -0.05900
C3539       C  0.00169031  0.14449519  0.90856292    -0.24000
C3540       C  0.00206285  0.14006957  0.88086451     0.18200
C3541       C  0.50420653  0.11270168  0.87024026     0.15400
C3542       C  0.50507550  0.09128928  0.88856679    -0.19100
C3543       C  0.50623480  0.10807691  0.84260761    -0.20900
C3544       C  0.50458229  0.12936573  0.82451991    -0.13500
C3545       C  0.50092286  0.15582018  0.83361552     0.03200
C3546       C  0.00035449  0.16166043  0.86287957    -0.25600
H3547       H  0.00191956  0.12714628  0.94762663     0.08300
H3548       H  0.00042918  0.16464398  0.91650696     0.11900
H3549       H  0.50736723  0.07102367  0.88114329     0.11800
H3550       H  0.50894585  0.08796120  0.83494502     0.10800
H3551       H  0.50623376  0.12501806  0.80332072     0.12100
H3552       H  0.99871107  0.18188041  0.87059756     0.14100
C3553       C  0.49883206  0.41727329  0.90477473    -0.05900
C3554       C  0.51096436  0.42492250  0.88045840    -0.05900
C3555       C  0.51386771  0.40657996  0.85942563    -0.24000
C3556       C  0.50451034  0.38023261  0.86217614     0.18200
C3557       C  0.99257661  0.37447749  0.88562531     0.15400
C3558       C  0.99068940  0.39305982  0.90660222    -0.19100
C3559       C  0.98364295  0.34816086  0.88926886    -0.20900
C3560       C  0.98588943  0.32952521  0.86856536    -0.13500
C3561       C  0.49747872  0.33530686  0.84388821     0.03200
C3562       C  0.50678681  0.36178065  0.84092748    -0.25600
H3563       H  0.51856262  0.44506808  0.87781179     0.08300
H3564       H  0.52337312  0.41303492  0.84098390     0.11900
H3565       H  0.98207145  0.38692940  0.92558900     0.11800
H3566       H  0.97497979  0.34194434  0.90819755     0.11600
H3567       H  0.97868945  0.30935859  0.87198357     0.12100
H3568       H  0.51589095  0.36798316  0.82218938     0.14100
C3569       C  0.49410004  0.40537807  0.58278079    -0.05900
C3570       C  0.98566834  0.37941563  0.57478186    -0.05900
C3571       C  0.98484011  0.35836006  0.59326633    -0.24000
C3572       C  0.99219494  0.36261283  0.62007713     0.18200
C3573       C  0.50296338  0.38773568  0.62758996     0.15400
C3574       C  0.50384298  0.40884441  0.60902291    -0.19100
C3575       C  0.51242841  0.39137529  0.65378523    -0.20900
C3576       C  0.51129697  0.37042423  0.67228805    -0.13500
C3577       C  0.50103236  0.34522917  0.66491639     0.03200
C3578       C  0.99215072  0.34138666  0.63862441    -0.25600
H3579       H  0.97995554  0.37547999  0.55421437     0.08300
H3580       H  0.97862916  0.33869103  0.58653322     0.11900
H3581       H  0.51226409  0.42795016  0.61499629     0.11800
H3582       H  0.52067485  0.41046867  0.66000126     0.11600
H3583       H  0.51887232  0.37386952  0.69234033     0.12100
H3584       H  0.98621569  0.32154871  0.63212311     0.14100
C3585       C  0.50789718  0.08455393  0.59407545    -0.05900
C3586       C  0.51087564  0.07572159  0.62066739    -0.05900
C3587       C  0.51022955  0.09384533  0.64196093    -0.24000
C3588       C  0.50645843  0.12120376  0.63716801     0.18200
C3589       C  0.00628121  0.12947172  0.61248304     0.15400
C3590       C  0.00742580  0.11133718  0.59093828    -0.19100
C3591       C  0.00423848  0.15702148  0.60778785    -0.20900
C3592       C  0.00258678  0.17495354  0.62920593    -0.13500
C3593       C  0.50104857  0.16683217  0.65388336     0.03200
C3594       C  0.50496273  0.13935668  0.65861044    -0.25600
H3595       H  0.51343159  0.05466852  0.62511912     0.08300
H3596       H  0.51232534  0.08638877  0.66223605     0.11900
H3597       H  0.00677049  0.11889116  0.57059113     0.11800
H3598       H  0.00379172  0.16473821  0.58750473     0.11600
H3599       H  0.00094990  0.19609121  0.62473021     0.12100
H3600       H  0.50698621  0.13204358  0.67895379     0.14100
O3601       O  0.50346780  0.53863761  0.07894143    -0.87200
O3602       O  0.50358435  0.54935964  0.42717078    -0.87400
O3603       O  0.54788439  0.57411528  0.00135488    -0.89000
O3604       O  0.96240883  0.57962481  0.00688118    -0.87800
O3605       O  0.92780088  0.54953398  0.00256970    -0.87400
O3606       O  0.57807855  0.53983914  0.99567413    -0.88700
O3607       O  0.50514756  0.57956614  0.46169592    -0.87200
O3608       O  0.50477551  0.57311055  0.04863127    -0.86800
Zr3609     Zr  0.50307942  0.55409455  0.00369507     2.84300
O3610       O  0.97603204  0.53191356  0.47419334    -1.08800
O3611       O  0.53019706  0.52372033  0.02725840    -1.09500
C3612       C  0.50401402  0.56375514  0.07276225     1.05900
C3613       C  0.50469792  0.57343896  0.43649794     1.05900
C3614       C  0.57197825  0.56496639  0.99783641     1.08800
C3615       C  0.93715497  0.57357560  0.00514234     1.06600
H3616       H  0.54162537  0.53904076  0.46401117     0.32200
O3617       O  0.52980505  0.52809351  0.47471365    -1.29700
H3618       H  0.96476985  0.53780317  0.04156476     0.31800
O3619       O  0.97534890  0.52693819  0.02950527    -1.31400
O3620       O  0.50030352  0.96214178  0.42070736    -0.87200
O3621       O  0.50054130  0.95242524  0.07402697    -0.88700
O3622       O  0.57516170  0.49602151  0.45373730    -0.87300
O3623       O  0.92542491  0.50657351  0.45375551    -0.87300
O3624       O  0.92396111  0.50038901  0.04265900    -0.87000
O3625       O  0.57918159  0.49277299  0.03787243    -0.86800
O3626       O  0.54062599  0.92250119  0.99599910    -0.87200
O3627       O  0.95172373  0.92814837  0.99711518    -0.86700
O3628       O  0.57537700  0.95272010  0.99681350    -0.87700
O3629       O  0.92138175  0.96266870  0.99989427    -0.86900
O3630       O  0.54168239  0.50309478  0.42305486    -0.87300
O3631       O  0.54884543  0.49354401  0.07264866    -0.87000
O3632       O  0.95575793  0.49583962  0.07577383    -0.86700
O3633       O  0.95944504  0.50831648  0.42282682    -0.87100
O3634       O  0.49824305  0.92761984  0.45089637    -0.87400
O3635       O  0.49882813  0.92229205  0.03934551    -0.88700
Zr3636     Zr  0.50031377  0.50485768  0.44662624     2.83100
Zr3637     Zr  0.50256890  0.49657011  0.05430513     2.83500
Zr3638     Zr  0.55374219  0.49713813  0.99613088     2.84100
Zr3639     Zr  0.94646653  0.50424083  0.99995141     2.83400
Zr3640     Zr  0.49804285  0.94688874  0.99681531     2.84200
O3641       O  0.97152479  0.97401192  0.02487751    -1.09300
O3642       O  0.52602653  0.97407309  0.47032368    -1.08800
C3643       C  0.49973456  0.93693914  0.42674360     1.05900
C3644       C  0.49975001  0.92828000  0.06460175     1.08500
C3645       C  0.56627626  0.49889190  0.42938827     1.06100
C3646       C  0.93443369  0.50795153  0.42942004     1.06400
C3647       C  0.93104110  0.49729437  0.06728982     1.06000
C3648       C  0.57318596  0.49229556  0.06311143     1.05600
C3649       C  0.56592366  0.92855947  0.99650142     1.06000
C3650       C  0.92750550  0.93754129  0.99889699     1.05500
H3651       H  0.53791017  0.95865671  0.03480592     0.32200
O3652       O  0.52711247  0.97102694  0.02460966    -1.30400
H3653       H  0.96089699  0.96675626  0.45883604     0.32200
O3654       O  0.97255829  0.97656925  0.47078544    -1.31800
O3655       O  0.49981237  0.71077590  0.17062757    -0.87200
O3656       O  0.50013147  0.70053726  0.32312103    -0.87400
O3657       O  0.54286343  0.67153573  0.24548161    -0.89000
O3658       O  0.95172567  0.67577296  0.24892788    -0.87800
O3659       O  0.92148047  0.71039735  0.24845222    -0.87400
O3660       O  0.57511503  0.70439443  0.24602279    -0.88700
O3661       O  0.49926860  0.67014390  0.28854849    -0.87200
O3662       O  0.49906975  0.67611107  0.20085608    -0.86800
Zr3663     Zr  0.49905053  0.69457861  0.24628644     2.84300
O3664       O  0.97135459  0.72186633  0.27667440    -1.08800
O3665       O  0.52632325  0.72316891  0.22081460    -1.09500
C3666       C  0.49940903  0.68561548  0.17671105     1.05900
C3667       C  0.49997814  0.67636537  0.31370178     1.05900
C3668       C  0.56759887  0.67972532  0.24509546     1.08800
C3669       C  0.92742787  0.68533903  0.24871347     1.06600
H3670       H  0.53756651  0.70758791  0.28586166     0.32200
O3671       O  0.52628825  0.71947218  0.27558492    -1.29700
H3672       H  0.96007717  0.71440497  0.20997459     0.31800
O3673       O  0.97193098  0.72460647  0.22139872    -1.31400
O3674       O  0.49936702  0.78854167  0.32917037    -0.87200
O3675       O  0.50059615  0.79864114  0.17683911    -0.88700
O3676       O  0.57603980  0.74416080  0.29342445    -0.87300
O3677       O  0.92287240  0.75077237  0.29155127    -0.87300
O3678       O  0.92335011  0.75497398  0.20827430    -0.87000
O3679       O  0.57562268  0.74909817  0.20696257    -0.86800
O3680       O  0.54754072  0.82347759  0.25417043    -0.87200
O3681       O  0.95704669  0.82758142  0.25510514    -0.86700
O3682       O  0.57790881  0.78905780  0.25047714    -0.87700
O3683       O  0.92517220  0.79448286  0.25379828    -0.86900
O3684       O  0.54425779  0.74532024  0.32683125    -0.87300
O3685       O  0.54465320  0.75244577  0.17314033    -0.87000
O3686       O  0.95442102  0.75326030  0.17438246    -0.86700
O3687       O  0.95355747  0.74774965  0.32566680    -0.87100
O3688       O  0.50119334  0.82307848  0.29885042    -0.87400
O3689       O  0.50129331  0.82879725  0.21162423    -0.88700
Zr3690     Zr  0.50020857  0.74591069  0.30462325     2.83100
Zr3691     Zr  0.50027136  0.75298911  0.19519643     2.83500
Zr3692     Zr  0.55335850  0.74760865  0.25011394     2.84100
Zr3693     Zr  0.94680732  0.75150692  0.25009269     2.83400
Zr3694     Zr  0.50151799  0.80400364  0.25376758     2.84200
O3695       O  0.97366404  0.77961063  0.22425740    -1.09300
O3696       O  0.52784877  0.77422743  0.27914533    -1.08800
C3697       C  0.49998052  0.81375319  0.32301107     1.05900
C3698       C  0.50102780  0.82279500  0.18638671     1.08500
C3699       C  0.56882842  0.74404921  0.31831606     1.06100
C3700       C  0.92922774  0.74960595  0.31642286     1.06400
C3701       C  0.92990698  0.75451080  0.18338228     1.06000
C3702       C  0.56912840  0.75087146  0.18201324     1.05600
C3703       C  0.57185838  0.81404984  0.25194594     1.06000
C3704       C  0.93237995  0.81915561  0.25537435     1.05500
H3705       H  0.53917228  0.78877013  0.21430173     0.32200
O3706       O  0.52750666  0.77742465  0.22474443    -1.30400
H3707       H  0.96211724  0.78725759  0.29050840     0.32200
O3708       O  0.97343335  0.77656894  0.27904151    -1.31800
O3709       O  0.82714760  0.00225509  0.20993702    -0.87200
O3710       O  0.67420782  0.00147741  0.20932528    -0.87400
O3711       O  0.75136442  0.96072249  0.17241196    -0.89000
O3712       O  0.74896629  0.54625906  0.17515919    -0.87800
O3713       O  0.75021778  0.57712886  0.20927503    -0.87400
O3714       O  0.75122202  0.92601000  0.20250601    -0.88700
O3715       O  0.70570019  0.00241129  0.17568018    -0.87200
O3716       O  0.79593070  0.00370025  0.17608883    -0.86800
Zr3717     Zr  0.75063611  0.00306583  0.19696601     2.84300
O3718       O  0.72251472  0.52781870  0.22519123    -1.08800
O3719       O  0.77807560  0.97529378  0.22320297    -1.09500
C3720       C  0.82049048  0.00274736  0.18500098     1.05900
C3721       C  0.68107411  0.00208399  0.18438626     1.05900
C3722       C  0.75113702  0.93550994  0.17834234     1.08800
C3723       C  0.74986914  0.57050406  0.18405986     1.06600
H3724       H  0.71265943  0.96322198  0.21125253     0.32200
O3725       O  0.72402792  0.97385711  0.22278042    -1.29700
H3726       H  0.78830269  0.54039597  0.21473346     0.31800
O3727       O  0.77710191  0.52857168  0.22517192    -1.31400
O3728       O  0.67528968  0.99489436  0.29606806    -0.87200
O3729       O  0.82636601  0.99802664  0.29673862    -0.88700
O3730       O  0.70752995  0.92245585  0.24959376    -0.87300
O3731       O  0.70454409  0.57497693  0.25525187    -0.87300
O3732       O  0.79352944  0.57645864  0.25607893    -0.87000
O3733       O  0.79707011  0.92511002  0.24634780    -0.86800
O3734       O  0.75174837  0.95143335  0.32462450    -0.87200
O3735       O  0.75125796  0.53833539  0.32885817    -0.86700
O3736       O  0.75304613  0.92104519  0.29017470    -0.87700
O3737       O  0.75010613  0.57304905  0.29873740    -0.86900
O3738       O  0.67561911  0.95557856  0.25173112    -0.87300
O3739       O  0.82792285  0.95924339  0.24866200    -0.87000
O3740       O  0.82581704  0.54358037  0.25650926    -0.86700
O3741       O  0.67314813  0.54119984  0.25612650    -0.87100
O3742       O  0.70868994  0.99350946  0.32760782    -0.87400
O3743       O  0.79344466  0.99368034  0.32855333    -0.88700
Zr3744     Zr  0.69711382  0.99901845  0.25214368     2.83100
Zr3745     Zr  0.80426578  0.00121355  0.25251686     2.83500
Zr3746     Zr  0.75170929  0.94518935  0.24779631     2.84100
Zr3747     Zr  0.74948064  0.55417237  0.25331437     2.83400
Zr3748     Zr  0.75114605  0.99639082  0.30510271     2.84200
O3749       O  0.77697088  0.52583602  0.27916636    -1.09300
O3750       O  0.72447585  0.97028140  0.27685826    -1.08800
C3751       C  0.68386991  0.99302830  0.32048744     1.05900
C3752       C  0.81823103  0.99492839  0.32123598     1.08500
C3753       C  0.68284891  0.93079361  0.25142102     1.06100
C3754       C  0.68005729  0.56609384  0.25668168     1.06400
C3755       C  0.81823813  0.56824893  0.25752418     1.06000
C3756       C  0.82147702  0.93435337  0.24675920     1.05600
C3757       C  0.75289184  0.92727031  0.31532115     1.06000
C3758       C  0.75075342  0.56353689  0.32289765     1.05500
H3759       H  0.78997154  0.95950907  0.28728517     0.32200
O3760       O  0.77841444  0.97100928  0.27687003    -1.30400
H3761       H  0.71216727  0.53492741  0.29166498     0.32200
O3762       O  0.72340744  0.52486411  0.27954798    -1.31800
O3763       O  0.70273217  0.67760189  0.49947585    -0.87200
O3764       O  0.71334997  0.83009061  0.50125514    -0.87400
O3765       O  0.67299330  0.75168642  0.03903791    -0.89000
O3766       O  0.67532268  0.75693453  0.45545307    -0.87800
O3767       O  0.70763652  0.75510964  0.42259698    -0.87400
O3768       O  0.70329780  0.74647806  0.07330758    -0.88700
O3769       O  0.67866025  0.80006915  0.49815871    -0.87200
O3770       O  0.67244334  0.71219753  0.50162578    -0.86800
Zr3771     Zr  0.69720276  0.75451068  0.49884364     2.84300
O3772       O  0.72649867  0.78097057  0.47385278    -1.08800
O3773       O  0.72157855  0.72321769  0.02374573    -1.09500
C3774       C  0.67860102  0.68701411  0.50156422     1.05900
C3775       C  0.68816855  0.82418890  0.49917940     1.05900
C3776       C  0.67898605  0.74869340  0.06395151     1.08800
C3777       C  0.68288856  0.75659763  0.43073586     1.06600
H3778       H  0.71365990  0.78784529  0.03861389     0.32200
O3779       O  0.72489629  0.77686587  0.02736664    -1.29700
H3780       H  0.71055762  0.71613083  0.45954388     0.31800
O3781       O  0.72243132  0.72624848  0.47106196    -1.31400
O3782       O  0.79941181  0.82469116  0.50279107    -0.87200
O3783       O  0.79084112  0.67268231  0.49661505    -0.88700
O3784       O  0.74858268  0.78897265  0.07837069    -0.87300
O3785       O  0.75494081  0.79815857  0.42660557    -0.87300
O3786       O  0.75011261  0.71032699  0.42196790    -0.87000
O3787       O  0.74824667  0.70096727  0.07276007    -0.86800
O3788       O  0.82574011  0.74252567  0.04400695    -0.87200
O3789       O  0.82697611  0.74579145  0.45812767    -0.86700
O3790       O  0.79340460  0.74415398  0.07678897    -0.87700
O3791       O  0.79583379  0.74924270  0.42436947    -0.86900
O3792       O  0.75171811  0.82340810  0.04807903    -0.87300
O3793       O  0.74563228  0.67118142  0.03772148    -0.87000
O3794       O  0.74722525  0.67630870  0.45269620    -0.86700
O3795       O  0.75633063  0.82840045  0.46121914    -0.87100
O3796       O  0.82969024  0.79009410  0.50218895    -0.87400
O3797       O  0.82511345  0.70334574  0.49902880    -0.88700
Zr3798     Zr  0.75476340  0.80448917  0.50332941     2.83100
Zr3799     Zr  0.74776613  0.69664516  0.49760095     2.83500
Zr3800     Zr  0.74920444  0.74649977  0.05395709     2.84100
Zr3801     Zr  0.75157113  0.75305736  0.44561380     2.83400
Zr3802     Zr  0.80463585  0.74764584  0.50111614     2.84200
O3803       O  0.77660518  0.72353563  0.47225121    -1.09300
O3804       O  0.77884273  0.77405280  0.02956807    -1.08800
C3805       C  0.82363212  0.81533110  0.50237594     1.05900
C3806       C  0.81606933  0.67916168  0.49734275     1.08500
C3807       C  0.74949877  0.81414701  0.07225671     1.06100
C3808       C  0.75623776  0.82226669  0.43611664     1.06400
C3809       C  0.74859759  0.68528702  0.42835664     1.06000
C3810       C  0.74663001  0.67694092  0.06301712     1.05600
C3811       C  0.81818563  0.74233229  0.06867878     1.06000
C3812       C  0.82014880  0.74643938  0.43322455     1.05500
H3813       H  0.78560436  0.70734878  0.03569167     0.32200
O3814       O  0.77516535  0.71979467  0.02522491    -1.30400
H3815       H  0.79221586  0.78794631  0.46402947     0.32200
O3816       O  0.78003243  0.77720095  0.47454664    -1.31800
C3817       C  0.74563363  0.65411281  0.08226399    -0.05900
C3818       C  0.73146501  0.63060795  0.07572860    -0.05900
C3819       C  0.72945296  0.60942370  0.09407349    -0.24000
C3820       C  0.74187476  0.61109780  0.11931179     0.18200
C3821       C  0.75679838  0.63430704  0.12580511     0.15400
C3822       C  0.75851410  0.65563222  0.10735555    -0.19100
C3823       C  0.76950324  0.63598132  0.15083479    -0.20900
C3824       C  0.76682161  0.61536804  0.16961079    -0.13500
C3825       C  0.75169553  0.59235943  0.16377696     0.03200
C3826       C  0.73955374  0.59015261  0.13824881    -0.25600
H3827       H  0.72137181  0.62884813  0.05657301     0.08300
H3828       H  0.71797758  0.59182335  0.08858138     0.11900
H3829       H  0.76986236  0.67342233  0.11253922     0.11800
H3830       H  0.78136676  0.65340883  0.15603196     0.11600
H3831       H  0.77694424  0.61728745  0.18873081     0.12100
H3832       H  0.72802474  0.57240604  0.13330207     0.14100
C3833       C  0.74798920  0.83373199  0.09487559    -0.05900
C3834       C  0.74674029  0.82457985  0.12155884    -0.05900
C3835       C  0.74676391  0.84256063  0.14305028    -0.24000
C3836       C  0.74797751  0.87019732  0.13846851     0.18200
C3837       C  0.74842228  0.87980478  0.11184317     0.15400
C3838       C  0.74828243  0.86158846  0.09024219    -0.19100
C3839       C  0.74944862  0.90747692  0.10730458    -0.20900
C3840       C  0.75043344  0.92539904  0.12885518    -0.13500
C3841       C  0.75033449  0.91613816  0.15553519     0.03200
C3842       C  0.74895924  0.88832744  0.16008103    -0.25600
H3843       H  0.74616127  0.80337337  0.12596468     0.08300
H3844       H  0.74617901  0.83479182  0.16331044     0.11900
H3845       H  0.74887272  0.86913881  0.06989432     0.11800
H3846       H  0.74968623  0.91529067  0.08705538     0.11600
H3847       H  0.75131168  0.94661287  0.12452487     0.12100
H3848       H  0.74869579  0.88071220  0.18041103     0.14100
C3849       C  0.75462553  0.90484781  0.33480261    -0.05900
C3850       C  0.75725152  0.87832576  0.32557766    -0.05900
C3851       C  0.75901054  0.85702503  0.34354827    -0.24000
C3852       C  0.75813257  0.86172069  0.37116725     0.18200
C3853       C  0.75604850  0.88825567  0.38080168     0.15400
C3854       C  0.75425040  0.90963057  0.36261357    -0.19100
C3855       C  0.75554274  0.89292513  0.40846690    -0.20900
C3856       C  0.75622988  0.87148269  0.42636618    -0.13500
C3857       C  0.75737244  0.84489540  0.41697384     0.03200
C3858       C  0.75883955  0.84025410  0.38924978    -0.25600
H3859       H  0.75792067  0.87391385  0.30434691     0.08300
H3860       H  0.76083647  0.83683667  0.33580916     0.11900
H3861       H  0.75244847  0.92990383  0.37015224     0.11800
H3862       H  0.75422758  0.91312710  0.41627092     0.11600
H3863       H  0.75533982  0.87580211  0.44761701     0.12100
H3864       H  0.76006831  0.81995558  0.38166390     0.14100
C3865       C  0.75057468  0.58292638  0.34564264    -0.05900
C3866       C  0.74917807  0.57376956  0.37231821    -0.05900
C3867       C  0.74835596  0.59181463  0.39376485    -0.24000
C3868       C  0.74892538  0.61947473  0.38909728     0.18200
C3869       C  0.75045598  0.62895838  0.36246360     0.15400
C3870       C  0.75133152  0.61072012  0.34097969    -0.19100
C3871       C  0.75097959  0.65657368  0.35772485    -0.20900
C3872       C  0.75008375  0.67464093  0.37909629    -0.13500
C3873       C  0.74871329  0.66559514  0.40582045     0.03200
C3874       C  0.74804267  0.63778618  0.41058297    -0.25600
H3875       H  0.74852437  0.55255945  0.37670800     0.08300
H3876       H  0.74718739  0.58410522  0.41402207     0.11900
H3877       H  0.75247911  0.61824158  0.32064309     0.11800
H3878       H  0.75211793  0.66424423  0.33744801     0.11600
H3879       H  0.75061532  0.69582490  0.37457641     0.12100
H3880       H  0.74699775  0.63034354  0.43095138     0.14100
C3881       C  0.90425627  0.66660976  0.24892103    -0.05900
C3882       C  0.87913955  0.67485288  0.23870707    -0.05900
C3883       C  0.85692431  0.65770983  0.23921844    -0.24000
C3884       C  0.85925684  0.63202847  0.25019535     0.18200
C3885       C  0.88422151  0.62375235  0.26105105     0.15400
C3886       C  0.90655726  0.64099469  0.26021450    -0.19100
C3887       C  0.88653296  0.59821795  0.27231501    -0.20900
C3888       C  0.86472951  0.58064110  0.27183811    -0.13500
C3889       C  0.84005070  0.58826234  0.26027470     0.03200
C3890       C  0.83725414  0.61430254  0.25002718    -0.25600
H3891       H  0.87671153  0.69456249  0.23000520     0.08300
H3892       H  0.83797865  0.66449147  0.23088822     0.11900
H3893       H  0.92562375  0.63458611  0.26858095     0.11800
H3894       H  0.90536436  0.59163490  0.28104266     0.11600
H3895       H  0.86731858  0.56082526  0.28025362     0.12100
H3896       H  0.81836481  0.62040270  0.24104432     0.14100
C3897       C  0.84433697  0.91542719  0.24538653    -0.05900
C3898       C  0.86942929  0.92427151  0.23567516    -0.05900
C3899       C  0.89191130  0.90753969  0.23620376    -0.24000
C3900       C  0.88985993  0.88167164  0.24671595     0.18200
C3901       C  0.86468691  0.87251082  0.25638275     0.15400
C3902       C  0.84204162  0.88931437  0.25541038    -0.19100
C3903       C  0.86262150  0.84675235  0.26709364    -0.20900
C3904       C  0.88503418  0.83000595  0.26762855    -0.13500
C3905       C  0.91003127  0.83859486  0.25744649     0.03200
C3906       C  0.91245052  0.86472885  0.24747437    -0.25600
H3907       H  0.87173441  0.94431625  0.22775828     0.08300
H3908       H  0.91093775  0.91492851  0.22860576     0.11900
H3909       H  0.82290569  0.88238021  0.26320198     0.11800
H3910       H  0.84361262  0.83943582  0.27480826     0.11600
H3911       H  0.88266785  0.81003067  0.27570132     0.12100
H3912       H  0.93155485  0.87152020  0.23948920     0.14100
C3913       C  0.65781674  0.58565040  0.25897548    -0.05900
C3914       C  0.63592206  0.58038607  0.27605634    -0.05900
C3915       C  0.61368671  0.59757559  0.27679808    -0.24000
C3916       C  0.61269189  0.62008641  0.26004826     0.18200
C3917       C  0.63479699  0.62566625  0.24301587     0.15400
C3918       C  0.65731008  0.60860385  0.24281318    -0.19100
C3919       C  0.63393262  0.64811276  0.22625802    -0.20900
C3920       C  0.61164470  0.66510741  0.22661209    -0.13500
C3921       C  0.58957402  0.65985424  0.24341809     0.03200
C3922       C  0.59007396  0.63713129  0.26000857    -0.25600
H3923       H  0.63598930  0.56281388  0.28876979     0.08300
H3924       H  0.59711237  0.59303285  0.29015561     0.11900
H3925       H  0.67400242  0.61264112  0.22941491     0.11800
H3926       H  0.65060378  0.65267105  0.21302826     0.11600
H3927       H  0.61167762  0.68259036  0.21377260     0.12100
H3928       H  0.57331406  0.63321319  0.27335949     0.14100
C3929       C  0.59507001  0.83275187  0.25020941    -0.05900
C3930       C  0.61931913  0.82411350  0.23824381    -0.05900
C3931       C  0.64154207  0.84116138  0.23630992    -0.24000
C3932       C  0.64016416  0.86726436  0.24642780     0.18200
C3933       C  0.61599934  0.87608206  0.25866253     0.15400
C3934       C  0.59362889  0.85887478  0.26040015    -0.19100
C3935       C  0.61451958  0.90207609  0.26887925    -0.20900
C3936       C  0.63642711  0.91934799  0.26659000    -0.13500
C3937       C  0.66053028  0.91111759  0.25415636     0.03200
C3938       C  0.66237719  0.88477118  0.24435655    -0.25600
H3939       H  0.62107547  0.80411916  0.23001718     0.08300
H3940       H  0.65976239  0.83393213  0.22681404     0.11900
H3941       H  0.57523033  0.86573923  0.26984406     0.11800
H3942       H  0.59631364  0.90916520  0.27850430     0.11600
H3943       H  0.63444737  0.93935645  0.27471857     0.12100
H3944       H  0.68074685  0.87811618  0.23470925     0.14100
C3945       C  0.90692516  0.75496159  0.16444179    -0.05900
C3946       C  0.88206347  0.76573340  0.17281983    -0.05900
C3947       C  0.85941251  0.76459916  0.15632024    -0.24000
C3948       C  0.86099447  0.75247746  0.13109339     0.18200
C3949       C  0.88581270  0.74144724  0.12250018     0.15400
C3950       C  0.90864618  0.74289823  0.13911481    -0.19100
C3951       C  0.88738458  0.72913440  0.09738915    -0.20900
C3952       C  0.86495702  0.72854845  0.08059975    -0.13500
C3953       C  0.84034238  0.74017387  0.08850638     0.03200
C3954       C  0.83834127  0.75160941  0.11414348    -0.25600
H3955       H  0.88006848  0.77506609  0.19232010     0.08300
H3956       H  0.84065251  0.77316246  0.16333630     0.11900
H3957       H  0.92750184  0.73411006  0.13262010     0.11800
H3958       H  0.90608762  0.72032980  0.09052215     0.11600
H3959       H  0.86705081  0.71932524  0.06105815     0.12100
H3960       H  0.81958584  0.76073756  0.12044866     0.14100
C3961       C  0.65573340  0.74785652  0.08274653    -0.05900
C3962       C  0.62935282  0.74490794  0.07267342    -0.05900
C3963       C  0.60709911  0.74489786  0.08981579    -0.24000
C3964       C  0.61061267  0.74791582  0.11748297     0.18200
C3965       C  0.63697946  0.75066090  0.12785570     0.15400
C3966       C  0.65931667  0.75053713  0.11051838    -0.19100
C3967       C  0.64061856  0.75364930  0.15545122    -0.20900
C3968       C  0.61850241  0.75389433  0.17263546    -0.13500
C3969       C  0.59205248  0.75114980  0.16275457     0.03200
C3970       C  0.58828146  0.74823507  0.13494736    -0.25600
H3971       H  0.62579895  0.74258127  0.05138879     0.08300
H3972       H  0.58713641  0.74263581  0.08139134     0.11900
H3973       H  0.67940322  0.75290596  0.11863418     0.11800
H3974       H  0.66062011  0.75581981  0.16380624     0.11600
H3975       H  0.62227395  0.75631118  0.19386680     0.12100
H3976       H  0.56813751  0.74599282  0.12693796     0.14100
C3977       C  0.59067250  0.74183937  0.33835173    -0.05900
C3978       C  0.61003340  0.72151789  0.33574748    -0.05900
C3979       C  0.63192329  0.72006533  0.35334294    -0.24000
C3980       C  0.63525445  0.73936370  0.37350793     0.18200
C3981       C  0.61556509  0.75964414  0.37659692     0.15400
C3982       C  0.59322813  0.76056681  0.35921096    -0.19100
C3983       C  0.61875584  0.77887489  0.39680540    -0.20900
C3984       C  0.64111008  0.77805731  0.41377692    -0.13500
C3985       C  0.66095094  0.75825191  0.41075004     0.03200
C3986       C  0.65794454  0.73886868  0.39052089    -0.25600
H3987       H  0.60822835  0.70676828  0.31992680     0.08300
H3988       H  0.64652858  0.70416057  0.35082333     0.11900
H3989       H  0.57838719  0.77634638  0.36127988     0.11800
H3990       H  0.60390742  0.79451643  0.39956474     0.11600
H3991       H  0.64291114  0.79294062  0.42947730     0.12100
H3992       H  0.67284701  0.72314490  0.38847931     0.14100
C3993       C  0.90636160  0.75076891  0.33519173    -0.05900
C3994       C  0.88139989  0.76097484  0.32643569    -0.05900
C3995       C  0.85923581  0.76151222  0.34352074    -0.24000
C3996       C  0.86158451  0.75183043  0.36969126     0.18200
C3997       C  0.88655232  0.74146883  0.37861129     0.15400
C3998       C  0.90879390  0.74111866  0.36137714    -0.19100
C3999       C  0.88894393  0.73171200  0.40471309    -0.20900
C4000       C  0.86708876  0.73289321  0.42211007    -0.13500
C4001       C  0.84233532  0.74374560  0.41373315     0.03200
C4002       C  0.83954788  0.75272012  0.38723694    -0.25600
H4003       H  0.87896320  0.76867130  0.30629877     0.08300
H4004       H  0.84033299  0.76956231  0.33629209     0.11900
H4005       H  0.92783464  0.73304189  0.36822726     0.11800
H4006       H  0.90781445  0.72347530  0.41180018     0.11600
H4007       H  0.86968168  0.72542748  0.44231335     0.12100
H4008       H  0.82057707  0.76107845  0.38052509     0.14100
C4009       C  0.84574181  0.83473979  0.00508832    -0.05900
C4010       C  0.87259355  0.82620062  0.00779919    -0.05900
C4011       C  0.89379703  0.84461233  0.00743328    -0.24000
C4012       C  0.88869922  0.87201347  0.00420997     0.18200
C4013       C  0.86345130  0.88024439  0.49432249     0.15400
C4014       C  0.84215916  0.86163110  0.49366071    -0.19100
C4015       C  0.85955290  0.90686118  0.48620711    -0.20900
C4016       C  0.88073794  0.92527541  0.48745503    -0.13500
C4017       C  0.90494497  0.91802244  0.99993930     0.03200
C4018       C  0.91000417  0.89049860  0.00333103    -0.25600
H4019       H  0.87730013  0.80517683  0.01014188     0.08300
H4020       H  0.91424172  0.83736609  0.00949995     0.11900
H4021       H  0.82254613  0.86787817  0.48650211     0.11800
H4022       H  0.84009678  0.91348181  0.47900390     0.11600
H4023       H  0.87713746  0.94566157  0.48100523     0.12100
H4024       H  0.93051184  0.88338802  0.00533077     0.14100
C4025       C  0.83506937  0.65596141  0.99548815    -0.05900
C4026       C  0.82910281  0.63226255  0.48504567    -0.05900
C4027       C  0.84774435  0.61135575  0.48388288    -0.24000
C4028       C  0.87382720  0.61479508  0.49396276     0.18200
C4029       C  0.88135704  0.63974850  0.50499318     0.15400
C4030       C  0.86078556  0.65936714  0.00685822    -0.19100
C4031       C  0.90524971  0.64166024  0.01794744    -0.20900
C4032       C  0.92396854  0.62070608  0.01739649    -0.13500
C4033       C  0.91730273  0.59586120  0.00587827     0.03200
C4034       C  0.89240856  0.59360180  0.49326626    -0.25600
H4035       H  0.80912414  0.62897749  0.47704161     0.08300
H4036       H  0.84170117  0.59241930  0.47517680     0.11900
H4037       H  0.86608035  0.67829229  0.01608932     0.11800
H4038       H  0.91087774  0.66051962  0.02709550     0.11600
H4039       H  0.94361655  0.62388031  0.02621883     0.12100
H4040       H  0.88644098  0.57454804  0.48474892     0.14100
C4041       C  0.58536849  0.90588176  0.99705755    -0.05900
C4042       C  0.57671846  0.87980592  0.99068629    -0.05900
C4043       C  0.59471932  0.85832117  0.99079318    -0.24000
C4044       C  0.62182070  0.86236965  0.99730233     0.18200
C4045       C  0.63216393  0.89022193  0.49632308     0.15400
C4046       C  0.61368045  0.91156114  0.49606903    -0.19100
C4047       C  0.65970754  0.89489161  0.50019072    -0.20900
C4048       C  0.67783792  0.87348709  0.50096378    -0.13500
C4049       C  0.66756062  0.84516154  0.00241152     0.03200
C4050       C  0.64021193  0.84099609  0.99642790    -0.25600
H4051       H  0.55599061  0.87599057  0.98522052     0.08300
H4052       H  0.58747958  0.83856994  0.98545709     0.11900
H4053       H  0.62091132  0.93182264  0.49896778     0.11800
H4054       H  0.66722521  0.91508496  0.50278346     0.11600
H4055       H  0.69894626  0.87781885  0.50413755     0.12100
H4056       H  0.63327429  0.82124757  0.99066048     0.14100
C4057       C  0.59435162  0.58473699  0.99569143    -0.05900
C4058       C  0.62214305  0.57662760  0.49187690    -0.05900
C4059       C  0.64325080  0.59507534  0.49048503    -0.24000
C4060       C  0.63929182  0.62172163  0.49836497     0.18200
C4061       C  0.61196838  0.63027396  0.00078078     0.15400
C4062       C  0.59062067  0.61181903  0.00282131    -0.19100
C4063       C  0.60837335  0.65719311  0.00793750    -0.20900
C4064       C  0.62971715  0.67536204  0.00592298    -0.13500
C4065       C  0.65523949  0.66702151  0.99691815     0.03200
C4066       C  0.66042187  0.64033806  0.49683741    -0.25600
H4067       H  0.62582962  0.55626278  0.48541100     0.08300
H4068       H  0.66268240  0.58849544  0.48314672     0.11900
H4069       H  0.57122026  0.61853084  0.01014149     0.11800
H4070       H  0.58905464  0.66421251  0.01515728     0.11600
H4071       H  0.62630157  0.69594396  0.01183838     0.12100
H4072       H  0.67991574  0.63388781  0.48952525     0.14100
C4073       C  0.83840489  0.49209008  0.34177780    -0.05900
C4074       C  0.83248576  0.97818053  0.36627458    -0.05900
C4075       C  0.85006694  0.97829928  0.38810367    -0.24000
C4076       C  0.87372696  0.99346372  0.38716728     0.18200
C4077       C  0.88128192  0.50477903  0.36165655     0.15400
C4078       C  0.86398518  0.50371204  0.33941066    -0.19100
C4079       C  0.90637946  0.51727795  0.35964378    -0.20900
C4080       C  0.92317020  0.51892457  0.38196798    -0.13500
C4081       C  0.91519363  0.50822668  0.40683941     0.03200
C4082       C  0.89086650  0.99474803  0.40949878    -0.25600
H4083       H  0.81398963  0.96680862  0.36776535     0.08300
H4084       H  0.84488675  0.96698538  0.40589856     0.11900
H4085       H  0.86995520  0.51293305  0.32066801     0.11800
H4086       H  0.91303979  0.52578615  0.34080576     0.11600
H4087       H  0.94257682  0.52853061  0.37971596     0.12100
H4088       H  0.88604804  0.98357417  0.42749714     0.14100
C4089       C  0.66434324  0.49006577  0.34282276    -0.05900
C4090       C  0.67414785  0.48553707  0.36897911    -0.05900
C4091       C  0.65698474  0.48594275  0.39102992    -0.24000
C4092       C  0.62956110  0.49074416  0.38751231     0.18200
C4093       C  0.61952195  0.99671549  0.36082308     0.15400
C4094       C  0.63721712  0.99725485  0.33896300    -0.19100
C4095       C  0.59277602  0.00459452  0.35764045    -0.20900
C4096       C  0.57567678  0.00529928  0.37970252    -0.13500
C4097       C  0.58492221  0.49719539  0.40628343     0.03200
C4098       C  0.61241051  0.49224664  0.40981857    -0.25600
H4099       H  0.69534890  0.48214229  0.37261662     0.08300
H4100       H  0.66526182  0.48288881  0.41088267     0.11900
H4101       H  0.63015294  0.00395212  0.31953196     0.11800
H4102       H  0.58516741  0.01057593  0.33819092     0.11600
H4103       H  0.55515491  0.01184335  0.37649489     0.12100
H4104       H  0.62048322  0.48967552  0.42982859     0.14100
C4105       C  0.65896864  0.50156855  0.16303684    -0.05900
C4106       C  0.63328038  0.51047142  0.17085898    -0.05900
C4107       C  0.61165186  0.51000423  0.15303017    -0.24000
C4108       C  0.61499212  0.50041365  0.12687789     0.18200
C4109       C  0.63922899  0.99012701  0.12117485     0.15400
C4110       C  0.66152976  0.99167514  0.13866196    -0.19100
C4111       C  0.64196682  0.97976237  0.09519003    -0.20900
C4112       C  0.61998164  0.97954149  0.07759147    -0.13500
C4113       C  0.59616345  0.49085223  0.08250316     0.03200
C4114       C  0.59303728  0.49989659  0.10902795    -0.25600
H4115       H  0.62983845  0.51796803  0.19093782     0.08300
H4116       H  0.59219715  0.51710159  0.15978525     0.11900
H4117       H  0.68103170  0.98444318  0.13214843     0.11800
H4118       H  0.66124286  0.97232726  0.08827227     0.11600
H4119       H  0.62294950  0.97196557  0.05746529     0.12100
H4120       H  0.57360563  0.50719425  0.11565705     0.14100
C4121       C  0.90840926  0.49537204  0.08668031    -0.05900
C4122       C  0.88290064  0.01650145  0.07782399    -0.05900
C4123       C  0.86084727  0.01799537  0.09511197    -0.24000
C4124       C  0.86318414  0.00940335  0.12166802     0.18200
C4125       C  0.88691405  0.50783041  0.12890219     0.15400
C4126       C  0.90963811  0.50765289  0.11195948    -0.19100
C4127       C  0.88788629  0.52064313  0.15382763    -0.20900
C4128       C  0.86563361  0.52009638  0.17091701    -0.13500
C4129       C  0.84174361  0.50690531  0.16348930     0.03200
C4130       C  0.84081707  0.01016548  0.13905652    -0.25600
H4131       H  0.88017405  0.02318772  0.05736426     0.08300
H4132       H  0.84189015  0.02564478  0.08760221     0.11900
H4133       H  0.92795598  0.51771098  0.11808449     0.11800
H4134       H  0.90600113  0.53082983  0.16028551     0.11600
H4135       H  0.86721031  0.52989978  0.19021940     0.12100
H4136       H  0.82162556  0.01758936  0.13190120     0.14100
C4137       C  0.50501162  0.59569705  0.41676962    -0.05900
C4138       C  0.00079605  0.62229196  0.42685065    -0.05900
C4139       C  0.99959184  0.64369614  0.40891989    -0.24000
C4140       C  0.00238823  0.63925985  0.38134608     0.18200
C4141       C  0.50493179  0.61147260  0.37038699     0.15400
C4142       C  0.50619220  0.59044312  0.38902189    -0.19100
C4143       C  0.50617717  0.60634847  0.34278765    -0.20900
C4144       C  0.50446649  0.62739206  0.32441251    -0.13500
C4145       C  0.50128469  0.65398903  0.33324747     0.03200
C4146       C  0.00028201  0.66057940  0.36312836    -0.25600
H4147       H  0.99819474  0.62638651  0.44800334     0.08300
H4148       H  0.99619382  0.66369356  0.41662220     0.11900
H4149       H  0.50785239  0.57002228  0.38185712     0.11800
H4150       H  0.50851755  0.58608048  0.33540194     0.10800
H4151       H  0.50574726  0.62278038  0.30324434     0.12100
H4152       H  0.99632014  0.68058864  0.37055739     0.14100
C4153       C  0.50102169  0.91716929  0.40431431    -0.05900
C4154       C  0.50748582  0.92539956  0.37809095    -0.05900
C4155       C  0.50853196  0.90689153  0.35701265    -0.24000
C4156       C  0.50320320  0.87970388  0.36165981     0.18200
C4157       C  0.99799014  0.87207170  0.38776610     0.15400
C4158       C  0.99783109  0.89058495  0.40894773    -0.19100
C4159       C  0.99554498  0.84462771  0.39291001    -0.20900
C4160       C  0.99581224  0.82620658  0.37185496    -0.13500
C4161       C  0.49904490  0.83358901  0.34534017     0.03200
C4162       C  0.50394281  0.86100133  0.34054992    -0.25600
H4163       H  0.51181218  0.94620508  0.37381596     0.08300
H4164       H  0.51349556  0.91386656  0.33705538     0.11900
H4165       H  0.99570707  0.88339347  0.42932153     0.11800
H4166       H  0.99349653  0.83737343  0.41326880     0.11600
H4167       H  0.99393664  0.80514972  0.37661516     0.12100
H4168       H  0.50856281  0.86781904  0.32045292     0.14100
C4169       C  0.49993646  0.90564730  0.08418105    -0.05900
C4170       C  0.98988216  0.87846532  0.07413600    -0.05900
C4171       C  0.98907412  0.85713894  0.09235576    -0.24000
C4172       C  0.99456009  0.86140044  0.11960920     0.18200
C4173       C  0.50292908  0.88880437  0.13025456     0.15400
C4174       C  0.50331663  0.91023847  0.11189505    -0.19100
C4175       C  0.50599857  0.89334667  0.15782547    -0.20900
C4176       C  0.50523230  0.87197296  0.17594319    -0.13500
C4177       C  0.50150137  0.84548633  0.16694392     0.03200
C4178       C  0.99400025  0.84003424  0.13807242    -0.25600
H4179       H  0.98546731  0.87444671  0.05327118     0.08300
H4180       H  0.98416901  0.83728792  0.08509854     0.11900
H4181       H  0.50613488  0.93045813  0.11924883     0.11800
H4182       H  0.50893495  0.91345825  0.16541443     0.11600
H4183       H  0.50771257  0.87625711  0.19707177     0.12100
H4184       H  0.98918656  0.82005302  0.13110154     0.14100
C4185       C  0.50321618  0.58330046  0.09510310    -0.05900
C4186       C  0.50403858  0.57439643  0.12183143    -0.05900
C4187       C  0.50332457  0.59261953  0.14300699    -0.24000
C4188       C  0.50156962  0.62012415  0.13792809     0.18200
C4189       C  0.00197260  0.62830765  0.11302128     0.15400
C4190       C  0.00347762  0.61004636  0.09166708    -0.19100
C4191       C  0.00014483  0.65583237  0.10808210    -0.20900
C4192       C  0.99862434  0.67393917  0.12935691    -0.13500
C4193       C  0.49936917  0.66616664  0.15417917     0.03200
C4194       C  0.50119511  0.63851006  0.15917062    -0.25600
H4195       H  0.50539549  0.55327263  0.12647288     0.08300
H4196       H  0.50420029  0.58517947  0.16337862     0.11900
H4197       H  0.00324018  0.61749297  0.07126927     0.11800
H4198       H  0.99991073  0.66339406  0.08773395     0.11600
H4199       H  0.99729457  0.69506886  0.12474199     0.12100
H4200       H  0.50248631  0.63120814  0.17957750     0.14100
O4201       O  0.50277577  0.53900612  0.57903563    -0.87200
O4202       O  0.49724602  0.54932204  0.92724450    -0.87400
O4203       O  0.54988941  0.57401415  0.50393686    -0.89000
O4204       O  0.96328848  0.58009149  0.50526746    -0.87800
O4205       O  0.92866004  0.55026939  0.49960703    -0.87400
O4206       O  0.58015933  0.53945782  0.50065270    -0.88700
O4207       O  0.50066619  0.57921379  0.96198602    -0.87200
O4208       O  0.50607138  0.57372391  0.54916214    -0.86800
Zr4209     Zr  0.50463879  0.55484985  0.50399825     2.84300
O4210       O  0.97492852  0.53200519  0.97539325    -1.08800
O4211       O  0.52960872  0.52381317  0.52901642    -1.09500
C4212       C  0.50480592  0.56414515  0.57321267     1.05900
C4213       C  0.49872173  0.57337784  0.93684109     1.05900
C4214       C  0.57409362  0.56465651  0.50212016     1.08800
C4215       C  0.93811436  0.57427275  0.50268670     1.06600
H4216       H  0.53754927  0.53853873  0.96138267     0.32200
O4217       O  0.52650532  0.52747946  0.97276740    -1.29700
H4218       H  0.96425728  0.53828667  0.54002311     0.31800
O4219       O  0.97502373  0.52720032  0.52834031    -1.31400
O4220       O  0.49976127  0.96286060  0.92110745    -0.87200
O4221       O  0.49796156  0.95197060  0.57280805    -0.88700
O4222       O  0.57073798  0.49543895  0.94965531    -0.87300
O4223       O  0.92323770  0.50640327  0.95647744    -0.87300
O4224       O  0.92322424  0.50309450  0.54051873    -0.87000
O4225       O  0.57670475  0.48990031  0.54255884    -0.86800
O4226       O  0.54076900  0.92284744  0.49388297    -0.87200
O4227       O  0.95313403  0.92743425  0.49659586    -0.86700
O4228       O  0.57535860  0.95320167  0.49496414    -0.87700
O4229       O  0.92272186  0.96201013  0.49797760    -0.86900
O4230       O  0.53578955  0.50082333  0.92015116    -0.87300
O4231       O  0.54436778  0.49091082  0.57557714    -0.87000
O4232       O  0.95395404  0.49768411  0.57441307    -0.86700
O4233       O  0.95631492  0.50891011  0.92460320    -0.87100
O4234       O  0.49807332  0.92816340  0.95122110    -0.87400
O4235       O  0.49648589  0.92185772  0.53807080    -0.88700
Zr4236     Zr  0.49546143  0.50404141  0.94621236     2.83100
Zr4237     Zr  0.49972583  0.49708724  0.55413785     2.83500
Zr4238     Zr  0.55499813  0.49718139  0.49928363     2.84100
Zr4239     Zr  0.94683820  0.50443781  0.49816121     2.83400
Zr4240     Zr  0.49780245  0.94688824  0.49600155     2.84200
O4241       O  0.97271027  0.97408815  0.52479619    -1.09300
O4242       O  0.52604152  0.97394888  0.97051472    -1.08800
C4243       C  0.49926696  0.93770059  0.92709034     1.05900
C4244       C  0.49666672  0.92786261  0.56329906     1.08500
C4245       C  0.56077503  0.49723502  0.92565359     1.06100
C4246       C  0.93142393  0.50835758  0.93191358     1.06400
C4247       C  0.92946256  0.50039337  0.56545472     1.06000
C4248       C  0.56909516  0.48854283  0.56731089     1.05600
C4249       C  0.56607159  0.92906490  0.49378935     1.06000
C4250       C  0.92889434  0.93687152  0.49715265     1.05500
H4251       H  0.53723433  0.95822253  0.53456931     0.32200
O4252       O  0.52663138  0.97077420  0.52437616    -1.30400
H4253       H  0.95910595  0.96726694  0.95899699     0.32200
O4254       O  0.97092938  0.97699975  0.97085824    -1.31800
O4255       O  0.49902440  0.71006494  0.67241457    -0.87200
O4256       O  0.49783880  0.70374689  0.82554493    -0.87400
O4257       O  0.54148200  0.67208896  0.74722788    -0.89000
O4258       O  0.95205403  0.67592381  0.74982389    -0.87800
O4259       O  0.92209089  0.71066882  0.75113052    -0.87400
O4260       O  0.57344511  0.70513250  0.74790389    -0.88700
O4261       O  0.49738336  0.67301030  0.79128101    -0.87200
O4262       O  0.49785572  0.67575465  0.70302546    -0.86800
Zr4263     Zr  0.49770753  0.69556745  0.74798728     2.84300
O4264       O  0.97309988  0.72223672  0.77694014    -1.08800
O4265       O  0.52501764  0.72367137  0.72203794    -1.09500
C4266       C  0.49869372  0.68498506  0.67876961     1.05900
C4267       C  0.49759771  0.67948360  0.81638071     1.05900
C4268       C  0.56620144  0.68044119  0.74690788     1.08800
C4269       C  0.92783207  0.68557361  0.75115509     1.06600
H4270       H  0.53619709  0.70924905  0.78720017     0.32200
O4271       O  0.52513107  0.72104124  0.77659758    -1.29700
H4272       H  0.95997540  0.71426705  0.71047228     0.31800
O4273       O  0.97219451  0.72444754  0.72152360    -1.31400
O4274       O  0.49694176  0.79139612  0.82851509    -0.87200
O4275       O  0.50006736  0.79790553  0.67550778    -0.88700
O4276       O  0.57503819  0.74438621  0.79370009    -0.87300
O4277       O  0.92494425  0.74990341  0.79264871    -0.87300
O4278       O  0.92315143  0.75294088  0.70964356    -0.87000
O4279       O  0.57474927  0.74655957  0.70685513    -0.86800
O4280       O  0.54734781  0.82430158  0.75453401    -0.87200
O4281       O  0.95829161  0.82749502  0.75122551    -0.86700
O4282       O  0.57750851  0.78964770  0.75256141    -0.87700
O4283       O  0.92671991  0.79422081  0.75023577    -0.86900
O4284       O  0.54357945  0.74729335  0.82727097    -0.87300
O4285       O  0.54352923  0.75035832  0.67323913    -0.87000
O4286       O  0.95354436  0.75299723  0.67512696    -0.86700
O4287       O  0.95628660  0.74710116  0.82616830    -0.87100
O4288       O  0.50015801  0.82528742  0.79750929    -0.87400
O4289       O  0.50177041  0.82864873  0.70974207    -0.88700
Zr4290     Zr  0.49922861  0.74826603  0.80505428     2.83100
Zr4291     Zr  0.49949783  0.75298616  0.69549965     2.83500
Zr4292     Zr  0.55250929  0.74845153  0.75045347     2.84100
Zr4293     Zr  0.94801471  0.75140868  0.75072099     2.83400
Zr4294     Zr  0.50150561  0.80514666  0.75273340     2.84200
O4295       O  0.97445719  0.77946667  0.72447669    -1.09300
O4296       O  0.52728693  0.77578055  0.77905104    -1.08800
C4297       C  0.49769805  0.81644018  0.82178093     1.05900
C4298       C  0.50100307  0.82219648  0.68460997     1.08500
C4299       C  0.56810241  0.74500445  0.81865633     1.06100
C4300       C  0.93176979  0.74782829  0.81734390     1.06400
C4301       C  0.92917190  0.75299646  0.68463025     1.06000
C4302       C  0.56793776  0.74747335  0.68186471     1.05600
C4303       C  0.57163926  0.81469413  0.75401561     1.06000
C4304       C  0.93362817  0.81894517  0.74994230     1.05500
H4305       H  0.53937541  0.78896078  0.71353224     0.32200
O4306       O  0.52742265  0.77802770  0.72411072    -1.30400
H4307       H  0.96351813  0.78789790  0.79043972     0.32200
O4308       O  0.97485846  0.77704286  0.77914238    -1.31800
O4309       O  0.82745122  0.00281163  0.71059377    -0.87200
O4310       O  0.67531276  0.00141934  0.70752960    -0.87400
O4311       O  0.75382429  0.96080963  0.67279719    -0.89000
O4312       O  0.74714635  0.54852347  0.67625564    -0.87800
O4313       O  0.74809260  0.57862677  0.71104798    -0.87400
O4314       O  0.75276016  0.92614774  0.70295206    -0.88700
O4315       O  0.70711354  0.00173299  0.67418063    -0.87200
O4316       O  0.79671592  0.00464418  0.67635525    -0.86800
Zr4317     Zr  0.75139295  0.00317871  0.69679370     2.84300
O4318       O  0.72257732  0.52899422  0.72488347    -1.08800
O4319       O  0.77813013  0.97512308  0.72356992    -1.09500
C4320       C  0.82115401  0.00378319  0.68552217     1.05900
C4321       C  0.68240888  0.00166325  0.68264614     1.05900
C4322       C  0.75375920  0.93565637  0.67882067     1.08800
C4323       C  0.74705333  0.57264358  0.68581170     1.06600
H4324       H  0.71314607  0.96343038  0.71050654     0.32200
O4325       O  0.72430162  0.97408087  0.72222285    -1.29700
H4326       H  0.78830666  0.54030416  0.71540858     0.31800
O4327       O  0.77674216  0.52870310  0.72570506    -1.31400
O4328       O  0.67428699  0.99863330  0.79494974    -0.87200
O4329       O  0.82513733  0.99842468  0.79771159    -0.88700
O4330       O  0.70603231  0.92367932  0.74826327    -0.87300
O4331       O  0.70459807  0.57643163  0.75534230    -0.87300
O4332       O  0.79428870  0.57601305  0.75536165    -0.87000
O4333       O  0.79643948  0.92453663  0.74966277    -0.86800
O4334       O  0.74927324  0.95273828  0.82490951    -0.87200
O4335       O  0.74764860  0.53829488  0.82931788    -0.86700
O4336       O  0.74933218  0.92191980  0.79075558    -0.87700
O4337       O  0.74888375  0.57295497  0.79910674    -0.86900
O4338       O  0.67462106  0.95720124  0.74991134    -0.87300
O4339       O  0.82690438  0.95889890  0.75235227    -0.87000
O4340       O  0.82556114  0.54226726  0.75466091    -0.86700
O4341       O  0.67329107  0.54272363  0.75353654    -0.87100
O4342       O  0.70733552  0.99631768  0.82675419    -0.87400
O4343       O  0.79131807  0.99557990  0.82867697    -0.88700
Zr4344     Zr  0.69718360  0.99957276  0.75097073     2.83100
Zr4345     Zr  0.80385463  0.00120820  0.75309582     2.83500
Zr4346     Zr  0.75107708  0.94536922  0.74810178     2.84100
Zr4347     Zr  0.74935009  0.55465880  0.75381856     2.83400
Zr4348     Zr  0.74968875  0.99744345  0.80465965     2.84200
O4349       O  0.77569241  0.52582810  0.78029548    -1.09300
O4350       O  0.72342706  0.97078363  0.77656584    -1.08800
C4351       C  0.68262579  0.99714402  0.81953084     1.05900
C4352       C  0.81626153  0.99630756  0.82206498     1.08500
C4353       C  0.68137126  0.93237781  0.74929612     1.06100
C4354       C  0.68003299  0.56751888  0.75531650     1.06400
C4355       C  0.81887902  0.56716915  0.75517667     1.06000
C4356       C  0.82081625  0.93389556  0.75134776     1.05600
C4357       C  0.74908283  0.92846389  0.81580685     1.06000
C4358       C  0.74793294  0.56343804  0.82318992     1.05500
H4359       H  0.78826536  0.96014348  0.78831341     0.32200
O4360       O  0.77719220  0.97155175  0.77729775    -1.30400
H4361       H  0.71063309  0.53600491  0.79072199     0.32200
O4362       O  0.72206303  0.52572222  0.77897812    -1.31800
O4363       O  0.70220547  0.67678797  0.99477812    -0.87200
O4364       O  0.71241122  0.82895706  0.00179500    -0.87400
O4365       O  0.67299590  0.75638329  0.54052513    -0.89000
O4366       O  0.67614844  0.75926586  0.95435204    -0.87800
O4367       O  0.70839401  0.75711363  0.92146688    -0.87400
O4368       O  0.70354431  0.75061649  0.57452106    -0.88700
O4369       O  0.67793714  0.79859451  0.99967349    -0.87200
O4370       O  0.67219571  0.71159888  0.99633712    -0.86800
Zr4371     Zr  0.69745885  0.75360297  0.99741526     2.84300
O4372       O  0.72684653  0.78044752  0.97280081    -1.08800
O4373       O  0.72186495  0.72451118  0.52512714    -1.09500
C4374       C  0.67803651  0.68636883  0.99577764     1.05900
C4375       C  0.68720740  0.82275926  0.00109381     1.05900
C4376       C  0.67923171  0.75405921  0.56543527     1.08800
C4377       C  0.68364315  0.75937119  0.92965760     1.06600
H4378       H  0.71418009  0.78978374  0.53944490     0.32200
O4379       O  0.72499289  0.77828459  0.52829818    -1.29700
H4380       H  0.71101268  0.71648355  0.95699451     0.31800
O4381       O  0.72281187  0.72618510  0.96894583    -1.31400
O4382       O  0.79899744  0.82412527  0.00472820    -0.87200
O4383       O  0.78994262  0.67166916  0.99414048    -0.88700
O4384       O  0.75138467  0.78999939  0.57909915    -0.87300
O4385       O  0.75585064  0.79792423  0.92531230    -0.87300
O4386       O  0.75143693  0.71104217  0.91979139    -0.87000
O4387       O  0.74552062  0.70376572  0.57498498    -0.86800
O4388       O  0.82609015  0.74320361  0.54429270    -0.87200
O4389       O  0.82894072  0.74845800  0.95950156    -0.86700
O4390       O  0.79371956  0.74426871  0.57711101    -0.87700
O4391       O  0.79845251  0.75074978  0.92504621    -0.86900
O4392       O  0.75426117  0.82414792  0.54854025    -0.87300
O4393       O  0.74429567  0.67311636  0.54067512    -0.87000
O4394       O  0.74729825  0.67691273  0.95028324    -0.86700
O4395       O  0.75719070  0.82797687  0.96017147    -0.87100
O4396       O  0.82936464  0.78964601  0.00391608    -0.87400
O4397       O  0.82410341  0.70223761  0.99857044    -0.88700
Zr4398     Zr  0.75435345  0.80399803  0.00281615     2.83100
Zr4399     Zr  0.74743845  0.69611181  0.99544181     2.83500
Zr4400     Zr  0.74947561  0.74806328  0.55478134     2.84100
Zr4401     Zr  0.75262682  0.75317603  0.94438076     2.83400
Zr4402     Zr  0.80443846  0.74712814  0.00092755     2.84200
O4403       O  0.77712080  0.72321150  0.97105556    -1.09300
O4404       O  0.77944724  0.77482900  0.52993643    -1.08800
C4405       C  0.82327273  0.81487458  0.00467529     1.05900
C4406       C  0.81507935  0.67807517  0.99601841     1.08500
C4407       C  0.75283741  0.81500593  0.57281481     1.06100
C4408       C  0.75727187  0.82191406  0.93495062     1.06400
C4409       C  0.74928570  0.68603930  0.92609074     1.06000
C4410       C  0.74367183  0.67961728  0.56581870     1.05600
C4411       C  0.81847880  0.74247168  0.56897773     1.06000
C4412       C  0.82278189  0.74959528  0.93451058     1.05500
H4413       H  0.78598676  0.70844329  0.53730166     0.32200
O4414       O  0.77565765  0.72080246  0.52661780    -1.30400
H4415       H  0.79260186  0.78807082  0.96431270     0.32200
O4416       O  0.78024155  0.77704048  0.97431476    -1.31800
C4417       C  0.74046032  0.65763214  0.58567049    -0.05900
C4418       C  0.72753322  0.63365393  0.57841999    -0.05900
C4419       C  0.72510315  0.61253902  0.59674447    -0.24000
C4420       C  0.73586364  0.61480832  0.62265939     0.18200
C4421       C  0.74811670  0.63915198  0.63042641     0.15400
C4422       C  0.75022291  0.66039044  0.61200617    -0.19100
C4423       C  0.75854265  0.64170978  0.65637008    -0.20900
C4424       C  0.75757559  0.62021454  0.67423492    -0.13500
C4425       C  0.74637689  0.59550121  0.66660961     0.03200
C4426       C  0.73513817  0.59306406  0.64074896    -0.25600
H4427       H  0.71927351  0.63121417  0.55848457     0.08300
H4428       H  0.71521000  0.59426370  0.59047311     0.11900
H4429       H  0.76010091  0.67879762  0.61797602     0.11800
H4430       H  0.76785079  0.66025167  0.66275748     0.11600
H4431       H  0.76631186  0.62276916  0.69394768     0.12100
H4432       H  0.72604164  0.57430303  0.63467050     0.14100
C4433       C  0.75276092  0.83440900  0.59543230    -0.05900
C4434       C  0.75255544  0.82508405  0.62209152    -0.05900
C4435       C  0.75293770  0.84293834  0.64360889    -0.24000
C4436       C  0.75352110  0.87056236  0.63902797     0.18200
C4437       C  0.75348124  0.88026865  0.61242153     0.15400
C4438       C  0.75296359  0.86219171  0.59081433    -0.19100
C4439       C  0.75413019  0.90791403  0.60788192    -0.20900
C4440       C  0.75467004  0.92576070  0.62944043    -0.13500
C4441       C  0.75442207  0.91639476  0.65607786     0.03200
C4442       C  0.75404815  0.88860495  0.66063342    -0.25600
H4443       H  0.75226788  0.80386008  0.62645254     0.08300
H4444       H  0.75288460  0.83510500  0.66385458     0.11900
H4445       H  0.75289326  0.86978855  0.57047376     0.11800
H4446       H  0.75417118  0.91576448  0.58764437     0.11600
H4447       H  0.75502534  0.94699611  0.62514724     0.12100
H4448       H  0.75394031  0.88095197  0.68095330     0.14100
C4449       C  0.74882642  0.90612308  0.83532871    -0.05900
C4450       C  0.73967292  0.88071234  0.82729132    -0.05900
C4451       C  0.74001728  0.85914916  0.84502022    -0.24000
C4452       C  0.74965020  0.86248181  0.87116084     0.18200
C4453       C  0.75909626  0.88784143  0.87952417     0.15400
C4454       C  0.75848712  0.90956355  0.86161526    -0.19100
C4455       C  0.76890403  0.89100490  0.90567702    -0.20900
C4456       C  0.76866684  0.86946787  0.92355851    -0.13500
C4457       C  0.75880643  0.84430985  0.91557891     0.03200
C4458       C  0.74969519  0.84090574  0.88913238    -0.25600
H4459       H  0.73206455  0.87748761  0.80721265     0.08300
H4460       H  0.73270919  0.83985803  0.83827081     0.11900
H4461       H  0.76587588  0.92896103  0.86799631     0.11800
H4462       H  0.77649549  0.91019350  0.91239698     0.11600
H4463       H  0.77614547  0.87253564  0.94370995     0.12100
H4464       H  0.74200892  0.82164202  0.88268642     0.14100
C4465       C  0.74662882  0.58300677  0.84542573    -0.05900
C4466       C  0.73709081  0.57537168  0.87084273    -0.05900
C4467       C  0.73507533  0.59412353  0.89155476    -0.24000
C4468       C  0.74274663  0.62079465  0.88727568     0.18200
C4469       C  0.75229317  0.62865002  0.86179260     0.15400
C4470       C  0.75418611  0.60976908  0.84110572    -0.19100
C4471       C  0.75987012  0.65527812  0.85739494    -0.20900
C4472       C  0.75839716  0.67394172  0.87816390    -0.13500
C4473       C  0.74943726  0.66633717  0.90381350     0.03200
C4474       C  0.74133112  0.63967041  0.90809736    -0.25600
H4475       H  0.73084122  0.55495618  0.87463802     0.08300
H4476       H  0.72757251  0.58775484  0.91091871     0.11900
H4477       H  0.76167473  0.61593689  0.82165616     0.11800
H4478       H  0.76716210  0.66163481  0.83794290     0.11600
H4479       H  0.76479451  0.69427753  0.87421928     0.12100
H4480       H  0.73410256  0.63353041  0.92764666     0.14100
C4481       C  0.90463218  0.66685197  0.75320663    -0.05900
C4482       C  0.87882132  0.67650653  0.76005508    -0.05900
C4483       C  0.85683933  0.65913696  0.76212703    -0.24000
C4484       C  0.86013469  0.63168474  0.75749010     0.18200
C4485       C  0.88601164  0.62175619  0.75101623     0.15400
C4486       C  0.90796231  0.63932444  0.74874709    -0.19100
C4487       C  0.88961792  0.59433335  0.74697804    -0.20900
C4488       C  0.86784432  0.57690358  0.74894843    -0.13500
C4489       C  0.84172404  0.58643048  0.75467378     0.03200
C4490       C  0.83807650  0.61400521  0.75911851    -0.25600
H4491       H  0.87555185  0.69757893  0.76396279     0.08300
H4492       H  0.83728568  0.66718855  0.76737850     0.11900
H4493       H  0.92762100  0.63152280  0.74348735     0.11800
H4494       H  0.90930934  0.58632089  0.74219432     0.11600
H4495       H  0.87154841  0.55583312  0.74544382     0.12100
H4496       H  0.81821914  0.62168427  0.76377719     0.14100
C4497       C  0.84428986  0.91537063  0.75230148    -0.05900
C4498       C  0.87010945  0.92575282  0.75805936    -0.05900
C4499       C  0.89287730  0.90942433  0.75791104    -0.24000
C4500       C  0.89051101  0.88215877  0.75225843     0.18200
C4501       C  0.86473234  0.87137115  0.74667524     0.15400
C4502       C  0.84180082  0.88794382  0.74680615    -0.19100
C4503       C  0.86228683  0.84413197  0.74105604    -0.20900
C4504       C  0.88487543  0.82766828  0.74158339    -0.13500
C4505       C  0.91065579  0.83790943  0.74778657     0.03200
C4506       C  0.91338030  0.86544752  0.75257368    -0.25600
H4507       H  0.87290588  0.94675081  0.76264186     0.08300
H4508       H  0.91233423  0.91815746  0.76232284     0.11900
H4509       H  0.82219100  0.87956063  0.74234826     0.11800
H4510       H  0.84283851  0.83544666  0.73650964     0.11600
H4511       H  0.88191587  0.80662312  0.73730634     0.12100
H4512       H  0.93300058  0.87371517  0.75719710     0.14100
C4513       C  0.65711315  0.58639261  0.75751124    -0.05900
C4514       C  0.63259163  0.57730693  0.76846290    -0.05900
C4515       C  0.60965805  0.59345881  0.76834778    -0.24000
C4516       C  0.61059672  0.61904168  0.75702326     0.18200
C4517       C  0.63522667  0.62849271  0.74623258     0.15400
C4518       C  0.65839841  0.61230199  0.74685756    -0.19100
C4519       C  0.63619979  0.65385924  0.73456636    -0.20900
C4520       C  0.61330402  0.66990121  0.73401778    -0.13500
C4521       C  0.58880674  0.66114175  0.74521440     0.03200
C4522       C  0.58744610  0.63538508  0.75639896    -0.25600
H4523       H  0.63104489  0.55741303  0.77694943     0.08300
H4524       H  0.59111905  0.58577786  0.77679897     0.11900
H4525       H  0.67704981  0.61943816  0.73814165     0.11800
H4526       H  0.65472959  0.66140679  0.72597771     0.11600
H4527       H  0.61492497  0.68956465  0.72507320     0.12100
H4528       H  0.56878659  0.62843914  0.76525151     0.14100
C4529       C  0.59495168  0.83335693  0.75464648    -0.05900
C4530       C  0.62145511  0.82315743  0.75457427    -0.05900
C4531       C  0.64366792  0.84025221  0.75366284    -0.24000
C4532       C  0.63999150  0.86798823  0.75280227     0.18200
C4533       C  0.61353414  0.87849002  0.75345445     0.15400
C4534       C  0.59124349  0.86120226  0.75444695    -0.19100
C4535       C  0.60974598  0.90615962  0.75277037    -0.20900
C4536       C  0.63182206  0.92326001  0.75117792    -0.13500
C4537       C  0.65840668  0.91321151  0.75029287     0.03200
C4538       C  0.66227604  0.88536553  0.75119599    -0.25600
H4539       H  0.62516675  0.80180624  0.75490576     0.08300
H4540       H  0.66372003  0.83173782  0.75336401     0.11900
H4541       H  0.57106870  0.86945253  0.75460608     0.11800
H4542       H  0.58967361  0.91462773  0.75336043     0.11600
H4543       H  0.62786552  0.94456376  0.75069460     0.12100
H4544       H  0.68248760  0.87723237  0.75072543     0.14100
C4545       C  0.90580490  0.75240152  0.66614349    -0.05900
C4546       C  0.88038647  0.76124920  0.67515845    -0.05900
C4547       C  0.85776877  0.75978480  0.65860901    -0.24000
C4548       C  0.85999067  0.74930548  0.63268852     0.18200
C4549       C  0.88523270  0.73964104  0.62371562     0.15400
C4550       C  0.90796613  0.74135745  0.64040073    -0.19100
C4551       C  0.88743203  0.72874407  0.59800551    -0.20900
C4552       C  0.86532160  0.72876812  0.58081021    -0.13500
C4553       C  0.84040512  0.73953236  0.58895159     0.03200
C4554       C  0.83764720  0.74900969  0.61533088    -0.25600
H4555       H  0.87797614  0.76954836  0.69507554     0.08300
H4556       H  0.83861819  0.76708581  0.66600606     0.11900
H4557       H  0.92722030  0.73385542  0.63346950     0.11800
H4558       H  0.90644435  0.72080917  0.59092452     0.11600
H4559       H  0.86793390  0.72080175  0.56078490     0.12100
H4560       H  0.81857018  0.75722859  0.62192808     0.14100
C4561       C  0.65616744  0.75527880  0.58443356    -0.05900
C4562       C  0.63169865  0.76713722  0.57633373    -0.05900
C4563       C  0.60914322  0.76700438  0.59311234    -0.24000
C4564       C  0.61051350  0.75516395  0.61851490     0.18200
C4565       C  0.63496758  0.74328733  0.62690197     0.15400
C4566       C  0.65758309  0.74341082  0.60987680    -0.19100
C4567       C  0.63651722  0.73169931  0.65236061    -0.20900
C4568       C  0.61452219  0.73273962  0.66974638    -0.13500
C4569       C  0.59020957  0.74497372  0.66201328     0.03200
C4570       C  0.58812998  0.75556209  0.63593676    -0.25600
H4571       H  0.62992472  0.77655458  0.55686474     0.08300
H4572       H  0.59069128  0.77631612  0.58626426     0.11900
H4573       H  0.67612976  0.73397354  0.61629559     0.11800
H4574       H  0.65496630  0.72230467  0.65908630     0.11600
H4575       H  0.61667804  0.72410297  0.68950700     0.12100
H4576       H  0.56954977  0.76499822  0.62960071     0.14100
C4577       C  0.59044919  0.74297363  0.83839341    -0.05900
C4578       C  0.61279248  0.72666521  0.83254986    -0.05900
C4579       C  0.63565519  0.72688261  0.84890120    -0.24000
C4580       C  0.63691599  0.74376698  0.87129097     0.18200
C4581       C  0.61420942  0.75956070  0.87798495     0.15400
C4582       C  0.59097774  0.75880962  0.86171193    -0.19100
C4583       C  0.61536046  0.77621453  0.90055737    -0.20900
C4584       C  0.63857158  0.77705891  0.91638657    -0.13500
C4585       C  0.66130014  0.76143593  0.90998534     0.03200
C4586       C  0.66041378  0.74501203  0.88713741    -0.25600
H4587       H  0.61273794  0.71400078  0.81492239     0.08300
H4588       H  0.65260241  0.71427611  0.84366027     0.11900
H4589       H  0.57389423  0.77144966  0.86646024     0.11800
H4590       H  0.59822304  0.78842374  0.90612934     0.11600
H4591       H  0.63860279  0.78964995  0.93407665     0.12100
H4592       H  0.67752605  0.73242509  0.88235507     0.14100
C4593       C  0.90922875  0.74584632  0.83640831    -0.05900
C4594       C  0.88372937  0.73767655  0.82713134    -0.05900
C4595       C  0.86181794  0.73640784  0.84446045    -0.24000
C4596       C  0.86491037  0.74339415  0.87139491     0.18200
C4597       C  0.89054427  0.75120925  0.88102454     0.15400
C4598       C  0.91255843  0.75238813  0.86348516    -0.19100
C4599       C  0.89368321  0.75789938  0.90802176    -0.20900
C4600       C  0.87161805  0.75716997  0.92524432    -0.13500
C4601       C  0.84587673  0.74993160  0.91579227     0.03200
C4602       C  0.84274041  0.74288088  0.88878959    -0.25600
H4603       H  0.88065406  0.73218188  0.80635499     0.08300
H4604       H  0.84243611  0.73014220  0.83674655     0.11900
H4605       H  0.93206993  0.75879762  0.87078307     0.11800
H4606       H  0.91314992  0.76383081  0.91579829     0.11600
H4607       H  0.87470677  0.76268411  0.94600681     0.12100
H4608       H  0.82314701  0.73690881  0.88135331     0.14100
C4609       C  0.84614183  0.83500252  0.50225099    -0.05900
C4610       C  0.87182170  0.82731288  0.51118176    -0.05900
C4611       C  0.89301550  0.84567614  0.51189277    -0.24000
C4612       C  0.88907744  0.87216155  0.50355659     0.18200
C4613       C  0.86187993  0.88100877  0.00166577     0.15400
C4614       C  0.84061597  0.86239470  0.00216285    -0.19100
C4615       C  0.85681398  0.90845343  0.99849498    -0.20900
C4616       C  0.87809660  0.92675586  0.99769650    -0.13500
C4617       C  0.90636704  0.91738570  0.49645394     0.03200
C4618       C  0.91034885  0.89067724  0.50443526    -0.25600
H4619       H  0.87546486  0.80708887  0.51806761     0.08300
H4620       H  0.91249497  0.83916752  0.51913368     0.11900
H4621       H  0.82012389  0.86947567  0.99994128     0.11800
H4622       H  0.83638646  0.91577380  0.99653159     0.11600
H4623       H  0.87347395  0.94777969  0.99510031     0.12100
H4624       H  0.92992818  0.88433485  0.51160539     0.14100
C4625       C  0.83616732  0.65715571  0.49613980    -0.05900
C4626       C  0.82848791  0.63114137  0.98389120    -0.05900
C4627       C  0.84713826  0.61017766  0.98353644    -0.24000
C4628       C  0.87270750  0.61351776  0.99493961     0.18200
C4629       C  0.87960325  0.63832306  0.00667599     0.15400
C4630       C  0.86252503  0.66079533  0.50595952    -0.19100
C4631       C  0.90756323  0.64313331  0.51489434    -0.20900
C4632       C  0.92604335  0.62197512  0.51395351    -0.13500
C4633       C  0.91863017  0.59689721  0.50332565     0.03200
C4634       C  0.89148852  0.59247366  0.99473980    -0.25600
H4635       H  0.80892984  0.62797688  0.97486477     0.08300
H4636       H  0.84154544  0.59133016  0.97434421     0.11900
H4637       H  0.86828384  0.67984549  0.51464548     0.11800
H4638       H  0.91375503  0.66211164  0.52341766     0.11600
H4639       H  0.94607176  0.62517330  0.52187984     0.12100
H4640       H  0.88609948  0.57355079  0.98556277     0.14100
C4641       C  0.58591842  0.90673877  0.49268315    -0.05900
C4642       C  0.57714062  0.88021727  0.48894920    -0.05900
C4643       C  0.59541711  0.85896706  0.48905389    -0.24000
C4644       C  0.62291363  0.86369707  0.49295149     0.18200
C4645       C  0.63071395  0.88828907  0.00442768     0.15400
C4646       C  0.61247171  0.90985273  0.00432300    -0.19100
C4647       C  0.65780908  0.89226226  0.01110488    -0.20900
C4648       C  0.67604838  0.87098280  0.00995931    -0.13500
C4649       C  0.66883206  0.84690458  0.49793481     0.03200
C4650       C  0.64122477  0.84228064  0.49374935    -0.25600
H4651       H  0.55601262  0.87577703  0.48611816     0.08300
H4652       H  0.58797939  0.83876573  0.48632537     0.11900
H4653       H  0.61941921  0.92968447  0.00978040     0.11800
H4654       H  0.66498600  0.91190703  0.01689556     0.11600
H4655       H  0.69687179  0.87479711  0.01507382     0.12100
H4656       H  0.63388885  0.82201147  0.49120947     0.14100
C4657       C  0.59655803  0.58439198  0.50114610    -0.05900
C4658       C  0.61970906  0.57663598  0.98607625    -0.05900
C4659       C  0.64095929  0.59485189  0.98401109    -0.24000
C4660       C  0.63739987  0.62166770  0.99146604     0.18200
C4661       C  0.61373310  0.62990744  0.50765924     0.15400
C4662       C  0.59252654  0.61126523  0.50888848    -0.19100
C4663       C  0.60983305  0.65662479  0.51547236    -0.20900
C4664       C  0.63090312  0.67513587  0.51363829    -0.13500
C4665       C  0.65634702  0.66729145  0.50405990     0.03200
C4666       C  0.65886689  0.63997750  0.98976618    -0.25600
H4667       H  0.62317947  0.55611227  0.98001046     0.08300
H4668       H  0.66023160  0.58791871  0.97659272     0.11900
H4669       H  0.57295092  0.61767994  0.51600317     0.11800
H4670       H  0.59043332  0.66325672  0.52283976     0.11600
H4671       H  0.62726687  0.69561904  0.51976821     0.12100
H4672       H  0.67834460  0.63316564  0.98274852     0.14100
C4673       C  0.83435844  0.49300516  0.84458121    -0.05900
C4674       C  0.82685969  0.98593806  0.86990956    -0.05900
C4675       C  0.84351730  0.98783525  0.89232048    -0.24000
C4676       C  0.86918238  0.99905289  0.88994517     0.18200
C4677       C  0.87652037  0.50715498  0.86519241     0.15400
C4678       C  0.85943567  0.50573684  0.84276845    -0.19100
C4679       C  0.90114592  0.52058163  0.86346276    -0.20900
C4680       C  0.91832645  0.52165321  0.88553174    -0.13500
C4681       C  0.91128527  0.50946004  0.90996144     0.03200
C4682       C  0.88601396  0.00133861  0.91244297    -0.25600
H4683       H  0.80691665  0.97758567  0.87250275     0.08300
H4684       H  0.83620127  0.98081568  0.91153412     0.11900
H4685       H  0.86526130  0.51535521  0.82418639     0.11800
H4686       H  0.90729354  0.53002492  0.84490453     0.11600
H4687       H  0.93744093  0.53183222  0.88335182     0.12100
H4688       H  0.87925060  0.99404262  0.93176542     0.14100
C4689       C  0.66008432  0.49552805  0.84030919    -0.05900
C4690       C  0.66970334  0.49399131  0.86686437    -0.05900
C4691       C  0.65215425  0.49312542  0.88847788    -0.24000
C4692       C  0.62446855  0.49396540  0.88423723     0.18200
C4693       C  0.61988760  0.00649707  0.86175466     0.15400
C4694       C  0.63729347  0.00691620  0.83958640    -0.19100
C4695       C  0.59375364  0.01659052  0.85965408    -0.20900
C4696       C  0.57637458  0.01520447  0.88153096    -0.13500
C4697       C  0.57914820  0.49550530  0.90234723     0.03200
C4698       C  0.60696471  0.49370025  0.90619633    -0.25600
H4699       H  0.69103761  0.49344401  0.87118897     0.08300
H4700       H  0.66031030  0.49197897  0.90858422     0.11900
H4701       H  0.63077596  0.01566210  0.82079646     0.11800
H4702       H  0.58664293  0.02523123  0.84104293     0.11600
H4703       H  0.55616538  0.02297962  0.87919666     0.12100
H4704       H  0.61512090  0.49270654  0.92631768     0.14100
C4705       C  0.65822646  0.50263906  0.66259701    -0.05900
C4706       C  0.63403902  0.51557362  0.66950975    -0.05900
C4707       C  0.61139194  0.51384927  0.65308780    -0.24000
C4708       C  0.61227081  0.49909776  0.62926621     0.18200
C4709       C  0.63872595  0.98812993  0.62081403     0.15400
C4710       C  0.66143406  0.98901761  0.63792923    -0.19100
C4711       C  0.63989914  0.97533260  0.59580499    -0.20900
C4712       C  0.61759877  0.97567579  0.57855787    -0.13500
C4713       C  0.59092457  0.48495061  0.58749149     0.03200
C4714       C  0.58962748  0.49811052  0.61232594    -0.25600
H4715       H  0.63257002  0.52701796  0.68789933     0.08300
H4716       H  0.59315052  0.52414485  0.65903433     0.11900
H4717       H  0.68000959  0.97927909  0.63202181     0.11800
H4718       H  0.65823728  0.96553486  0.58932156     0.11600
H4719       H  0.61941023  0.96619239  0.55911527     0.12100
H4720       H  0.57154243  0.50897932  0.61773624     0.14100
C4721       C  0.90618184  0.50081314  0.58461763    -0.05900
C4722       C  0.88249655  0.01397287  0.57695439    -0.05900
C4723       C  0.86055861  0.01588729  0.59444133    -0.24000
C4724       C  0.86338295  0.00901730  0.62147726     0.18200
C4725       C  0.88731582  0.49938409  0.62997800     0.15400
C4726       C  0.90967972  0.49838911  0.61250106    -0.19100
C4727       C  0.89080379  0.49674687  0.65766139    -0.20900
C4728       C  0.86869502  0.49778594  0.67492422    -0.13500
C4729       C  0.84235374  0.50163800  0.66509905     0.03200
C4730       C  0.84121873  0.01040152  0.63917442    -0.25600
H4731       H  0.87935944  0.01944721  0.55619710     0.08300
H4732       H  0.84132806  0.02261840  0.58673760     0.11900
H4733       H  0.92972253  0.49578669  0.62063209     0.11800
H4734       H  0.91069075  0.49378457  0.66603162     0.11600
H4735       H  0.87239948  0.49545499  0.69617295     0.12100
H4736       H  0.82179176  0.01700470  0.63184298     0.14100
C4737       C  0.49782735  0.59616357  0.91771051    -0.05900
C4738       C  0.99992528  0.62320964  0.92754282    -0.05900
C4739       C  0.99896673  0.64461225  0.90951579    -0.24000
C4740       C  0.00051692  0.63998007  0.88185184     0.18200
C4741       C  0.50106466  0.61367593  0.87214220     0.15400
C4742       C  0.50245506  0.59214391  0.89019847    -0.19100
C4743       C  0.50578339  0.60960546  0.84479795    -0.20900
C4744       C  0.50437693  0.63099146  0.82689935    -0.13500
C4745       C  0.49826048  0.65702032  0.83587694     0.03200
C4746       C  0.99931033  0.66135761  0.86354895    -0.25600
H4747       H  0.99853109  0.62749309  0.94876960     0.08300
H4748       H  0.99693806  0.66478771  0.91723124     0.11900
H4749       H  0.50724239  0.57229648  0.88281138     0.11800
H4750       H  0.51066290  0.58986274  0.83722404     0.10800
H4751       H  0.50842547  0.62709461  0.80593371     0.12100
H4752       H  0.99699591  0.68162343  0.87096475     0.14100
C4753       C  0.50047934  0.91834446  0.90448655    -0.05900
C4754       C  0.51378249  0.92510853  0.88050954    -0.05900
C4755       C  0.51564880  0.90669242  0.85942035    -0.24000
C4756       C  0.50407360  0.88118994  0.86178789     0.18200
C4757       C  0.99229843  0.87425253  0.88511495     0.15400
C4758       C  0.98961978  0.89307945  0.90592839    -0.19100
C4759       C  0.98017869  0.84900313  0.88713531    -0.20900
C4760       C  0.98329247  0.83011877  0.86668605    -0.13500
C4761       C  0.49510916  0.83656819  0.84359990     0.03200
C4762       C  0.50612200  0.86240100  0.84083228    -0.25600
H4763       H  0.52318733  0.94453307  0.87823864     0.08300
H4764       H  0.52628938  0.91234349  0.84132843     0.11900
H4765       H  0.97800527  0.88802134  0.92360581     0.11800
H4766       H  0.96832857  0.84380845  0.90460323     0.11600
H4767       H  0.97354137  0.81084247  0.86875770     0.12100
H4768       H  0.51674039  0.86770076  0.82261262     0.14100
C4769       C  0.49552324  0.90529248  0.58279836    -0.05900
C4770       C  0.98607555  0.88001273  0.57550471    -0.05900
C4771       C  0.98520446  0.85871954  0.59371647    -0.24000
C4772       C  0.99166487  0.86279044  0.62077061     0.18200
C4773       C  0.50262171  0.88768772  0.62801885     0.15400
C4774       C  0.50329856  0.90905719  0.60967131    -0.19100
C4775       C  0.51034695  0.89155767  0.65473780    -0.20900
C4776       C  0.50962051  0.87032170  0.67294326    -0.13500
C4777       C  0.50141341  0.84458286  0.66485550     0.03200
C4778       C  0.99212630  0.84119784  0.63893799    -0.25600
H4779       H  0.98127300  0.87609044  0.55470691     0.08300
H4780       H  0.97986109  0.83895767  0.58653172     0.11900
H4781       H  0.51014111  0.92856403  0.61630182     0.11800
H4782       H  0.51694821  0.91105850  0.66160034     0.11600
H4783       H  0.51580019  0.87406294  0.69341106     0.12100
H4784       H  0.98722283  0.82125868  0.63192116     0.14100
C4785       C  0.50503158  0.58339803  0.59596424    -0.05900
C4786       C  0.50309429  0.57408151  0.62252667    -0.05900
C4787       C  0.50156634  0.59197901  0.64399306    -0.24000
C4788       C  0.50185510  0.61962977  0.63941881     0.18200
C4789       C  0.99839594  0.62872164  0.61251787     0.15400
C4790       C  0.00041106  0.61059964  0.59106559    -0.19100
C4791       C  0.99448567  0.65607422  0.60776423    -0.20900
C4792       C  0.99308513  0.67406713  0.62915307    -0.13500
C4793       C  0.49988824  0.66553483  0.65622852     0.03200
C4794       C  0.49969597  0.63774753  0.66089237    -0.25600
H4795       H  0.50237833  0.55285232  0.62679968     0.08300
H4796       H  0.49984072  0.58416053  0.66416808     0.11900
H4797       H  0.99885560  0.61797358  0.57069823     0.11800
H4798       H  0.99276379  0.66361266  0.58747958     0.11600
H4799       H  0.99034970  0.69510389  0.62471299     0.12100
H4800       H  0.49796679  0.63017126  0.68116868     0.14100
loop_ 
_geom_bond_atom_site_label_1 
_geom_bond_atom_site_label_2 
_geom_bond_distance 
_geom_bond_site_symmetry_2 
_ccdc_geom_bond_type 
O1          Zr37   2.436   1_545  S
O1           C12   1.293       .  A
O2          Zr36   2.442       .  S
O2           C13   1.292       .  A
O3           Zr9   2.445       .  S
O3           C14   1.294       .  A
O4        Zr2409   2.450       .  S
O4           C15   1.295       .  A
O5          Zr39   2.438       .  S
O5           C15   1.292       .  A
O6          Zr38   2.446   1_545  S
O6           C14   1.294   1_556  A
O7         Zr609   2.449       .  S
O7           C13   1.295       .  A
O8           Zr9   2.446       .  S
O8           C12   1.295       .  A
Zr9        O2404   2.440   1_455  S
Zr9         O607   2.447   1_554  S
Zr9          O11   2.345       .  S
Zr9        O3010   2.346   1_454  S
Zr9        O2419   2.337   1_455  S
Zr9         O617   2.336   1_554  S
O10       Zr3009   2.343       .  S
O10       Zr2436   2.330       .  S
O10        Zr639   2.328       .  S
O11         Zr37   2.358   1_545  S
O11         Zr38   2.352   1_544  S
C12         C585   1.486       .  S
C13         C537   1.486       .  S
C14         C457   1.485   1_554  S
C15         C433   1.485       .  S
H16          O17   0.964       .  S
O17         Zr36   2.334       .  S
O17        Zr609   2.344       .  S
O17        Zr638   2.339   1_545  S
H18          O19   0.965       .  S
O19         Zr39   2.346       .  S
O19       Zr2409   2.333       .  S
O19       Zr2437   2.346   1_545  S
O20       Zr1236   2.438       .  S
O20          C43   1.292       .  A
O21       Zr1237   2.441   1_655  S
O21          C44   1.293       .  A
O22        Zr638   2.478       .  S
O22          C45   1.300   1_565  A
O23        Zr639   2.468       .  S
O23          C46   1.297       .  A
O24         Zr39   2.405       .  S
O24          C47   1.287       .  A
O25         Zr38   2.435   1_554  S
O25          C48   1.293       .  A
O26         Zr40   2.453   1_455  S
O26          C49   1.295       .  A
O27       Zr2440   2.448       .  S
O27          C50   1.295   1_556  A
O28       Zr1238   2.453       .  S
O28          C49   1.295       .  A
O29       Zr1239   2.426       .  S
O29          C50   1.290       .  A
O30         Zr36   2.376       .  S
O30          C45   1.281       .  A
O31         Zr37   2.475       .  S
O31          C48   1.300       .  A
O32       Zr2437   2.491   1_545  S
O32          C47   1.303       .  A
O33       Zr2436   2.402       .  S
O33          C46   1.285       .  A
O34        Zr640   2.453   1_455  S
O34          C43   1.296       .  A
O35         Zr40   2.454   1_554  S
O35          C44   1.296       .  A
Zr36       O1220   2.435   1_545  S
Zr36       O2433   2.403   1_455  S
Zr36       O2410   2.330   1_455  S
Zr36       O1242   2.339   1_545  S
Zr36       O3654   2.334   1_445  S
Zr37       O1221   2.458   1_455  S
Zr37       O2432   2.490   1_455  S
Zr37       O2419   2.347   1_465  S
Zr37       O3641   2.344   1_455  S
Zr37       O1252   2.348       .  S
Zr38        O622   2.471   1_565  S
Zr38       O1228   2.451       .  S
Zr38        O617   2.335   1_565  S
Zr38       O1842   2.336       .  S
Zr38       O1252   2.351   1_556  S
Zr39        O623   2.455   1_554  S
Zr39       O1229   2.428   1_545  S
Zr39        O610   2.331   1_554  S
Zr39       O1241   2.351   1_545  S
Zr39       O1854   2.336   1_544  S
Zr40       O2427   2.451       .  S
Zr40        O634   2.454       .  S
Zr40         O52   2.345   1_656  S
Zr40       O2441   2.335   1_556  S
Zr40        O642   2.340   1_655  S
Zr40       O3054   2.352       .  S
O41       Zr3637   2.337       .  S
O41       Zr1239   2.342       .  S
O41       Zr2440   2.338   1_554  S
O42       Zr1236   2.340       .  S
O42       Zr1838   2.335       .  S
O42        Zr640   2.341   1_455  S
C43         C553   1.490       .  S
C44         C569   1.491       .  S
C45         C497   1.475       .  S
C46         C481   1.477       .  S
C47         C521   1.488       .  S
C48         C513   1.492       .  S
C49         C441   1.493       .  S
C50         C417   1.483       .  S
H51          O52   0.964       .  S
O52       Zr1237   2.352       .  S
O52       Zr1238   2.349   1_554  S
H53          O54   0.966       .  S
O54       Zr3636   2.330       .  S
O54       Zr1839   2.336       .  S
O54       Zr3040   2.354       .  S
O55         Zr91   2.450       .  S
O55          C66   1.296       .  A
O56         Zr90   2.449       .  S
O56          C67   1.296       .  A
O57         Zr63   2.470   1_455  S
O57          C68   1.298       .  A
O58       Zr2463   2.472       .  S
O58          C69   1.298       .  A
O59         Zr93   2.419       .  S
O59          C69   1.289       .  A
O60         Zr92   2.423       .  S
O60          C68   1.289       .  A
O61         Zr63   2.442   1_455  S
O61          C67   1.294       .  A
O62         Zr63   2.442       .  S
O62          C66   1.294       .  A
Zr63       O2458   2.477       .  S
Zr63         O65   2.342   1_655  S
Zr63         O71   2.348   1_655  S
Zr63       O2464   2.351       .  S
Zr63       O2473   2.345       .  S
O64         Zr93   2.330       .  S
O64       Zr2463   2.352       .  S
O64       Zr2490   2.345       .  S
O65         Zr91   2.346   1_455  S
O65         Zr92   2.328       .  S
C66         C593   1.488       .  S
C67         C545   1.484       .  S
C68         C321   1.485       .  S
C69         C281   1.490       .  S
H70          O71   0.964       .  S
O71         Zr90   2.354       .  S
O71         Zr92   2.326       .  S
H72          O73   0.965       .  S
O73         Zr93   2.328       .  S
O73       Zr2463   2.347       .  S
O73       Zr2491   2.346       .  S
O74         Zr90   2.451       .  S
O74          C97   1.296       .  A
O75         Zr91   2.459       .  S
O75          C98   1.298       .  A
O76         Zr92   2.434       .  S
O76          C99   1.291       .  A
O77         Zr93   2.379       .  S
O77         C100   1.280       .  A
O78         Zr93   2.390       .  S
O78         C101   1.283       .  A
O79         Zr92   2.406       .  S
O79         C102   1.286       .  A
O80         Zr94   2.479       .  S
O80         C103   1.300       .  A
O81       Zr2494   2.482       .  S
O81         C104   1.300       .  A
O82         Zr92   2.409       .  S
O82         C103   1.287       .  A
O83         Zr93   2.413       .  S
O83         C104   1.287       .  A
O84         Zr90   2.451       .  S
O84          C99   1.294       .  A
O85         Zr91   2.488   1_455  S
O85         C102   1.301       .  A
O86       Zr2491   2.480       .  S
O86         C101   1.300       .  A
O87       Zr2490   2.466       .  S
O87         C100   1.297       .  A
O88         Zr94   2.440       .  S
O88          C97   1.294       .  A
O89         Zr94   2.438   1_655  S
O89          C98   1.294       .  A
Zr90       O2487   2.468   1_455  S
Zr90         O96   2.349       .  S
Zr90       O2464   2.350   1_455  S
Zr90       O2508   2.340   1_455  S
Zr91       O2486   2.483       .  S
Zr91        O106   2.351   1_655  S
Zr91       O2473   2.348       .  S
Zr91       O2495   2.351       .  S
Zr92         O96   2.332       .  S
Zr92        O106   2.339       .  S
Zr93         O95   2.325       .  S
Zr93        O108   2.327       .  S
Zr94       O2481   2.482   1_455  S
Zr94         O96   2.348       .  S
Zr94        O106   2.348       .  S
Zr94       O2495   2.351   1_455  S
Zr94       O2508   2.341   1_455  S
O95       Zr2491   2.346       .  S
O95       Zr2494   2.350       .  S
C97         C561   1.489       .  S
C98         C577   1.490       .  S
C99         C377   1.481       .  S
C100        C393   1.465       .  S
C101        C345   1.485       .  S
C102        C369   1.491       .  S
C103        C329   1.491       .  S
C104        C305   1.490       .  S
H105        O106   0.964       .  S
H107        O108   0.964       .  S
O108      Zr2490   2.338       .  S
O108      Zr2494   2.339       .  S
O109       Zr145   2.421       .  S
O109        C120   1.290       .  A
O110       Zr144   2.414       .  S
O110        C121   1.288       .  A
O111       Zr117   2.440       .  S
O111        C122   1.293       .  A
O112      Zr1317   2.442       .  S
O112        C123   1.293       .  A
O113       Zr147   2.458       .  S
O113        C123   1.297       .  A
O114       Zr146   2.451       .  S
O114        C122   1.296       .  A
O115       Zr117   2.480       .  S
O115        C121   1.300       .  A
O116       Zr117   2.481       .  S
O116        C120   1.300       .  A
Zr117      O1312   2.436       .  S
Zr117       O119   2.346       .  S
Zr117       O125   2.348       .  S
Zr117      O1318   2.350       .  S
Zr117      O1327   2.351       .  S
O118       Zr147   2.341       .  S
O118      Zr1317   2.349       .  S
O118      Zr1344   2.344       .  S
O119       Zr145   2.346       .  S
O119       Zr146   2.344       .  S
C120       C1729   1.485       .  S
C121       C1705   1.490       .  S
C122        C241   1.492       .  S
C123        C225   1.485       .  S
H124        O125   0.966       .  S
O125       Zr144   2.348       .  S
O125       Zr146   2.344       .  S
H126        O127   0.965       .  S
O127       Zr147   2.348       .  S
O127      Zr1317   2.353       .  S
O127      Zr1345   2.350       .  S
O128       Zr144   2.453       .  S
O128        C151   1.294       .  A
O129       Zr145   2.469       .  S
O129        C152   1.296       .  A
O130       Zr146   2.478       .  S
O130        C153   1.300       .  A
O131       Zr147   2.487       .  S
O131        C154   1.301       .  A
O132       Zr147   2.470       .  S
O132        C155   1.299       .  A
O133       Zr146   2.474       .  S
O133        C156   1.299       .  A
O134       Zr148   2.455       .  S
O134        C157   1.296       .  A
O135      Zr1348   2.450   1_545  S
O135        C158   1.296       .  A
O136       Zr146   2.435       .  S
O136        C157   1.293       .  A
O137       Zr147   2.443       .  S
O137        C158   1.295       .  A
O138       Zr144   2.410       .  S
O138        C153   1.288       .  A
O139       Zr145   2.415       .  S
O139        C156   1.289       .  A
O140      Zr1345   2.420       .  S
O140        C155   1.290       .  A
O141      Zr1344   2.420       .  S
O141        C154   1.289       .  A
O142       Zr148   2.403       .  S
O142        C151   1.285       .  A
O143       Zr148   2.410       .  S
O143        C152   1.287       .  A
Zr144      O1341   2.410       .  S
Zr144       O150   2.329       .  S
Zr144      O1318   2.343       .  S
Zr144      O1362   2.323       .  S
Zr145      O1340   2.412       .  S
Zr145       O160   2.327       .  S
Zr145      O1327   2.348       .  S
Zr145      O1349   2.322       .  S
Zr146       O150   2.349       .  S
Zr146       O160   2.351       .  S
Zr147       O149   2.358       .  S
Zr147       O162   2.349       .  S
Zr148      O1335   2.438       .  S
Zr148       O150   2.332       .  S
Zr148       O160   2.331       .  S
Zr148      O1349   2.336       .  S
Zr148      O1362   2.345       .  S
O149      Zr1345   2.321       .  S
O149      Zr1348   2.333   1_545  S
C151       C1689   1.468       .  S
C152       C1673   1.481       .  S
C153        C337   1.491       .  S
C154        C313   1.491       .  S
C155        C289   1.488       .  S
C156        C297   1.487       .  S
C157        C249   1.489       .  S
C158        C265   1.489       .  S
H159        O160   0.965       .  S
H161        O162   0.964       .  S
O162      Zr1344   2.326       .  S
O162      Zr1348   2.346   1_545  S
O163       Zr199   2.444       .  S
O163        C174   1.294       .  A
O164       Zr198   2.429       .  S
O164        C175   1.291       .  A
O165       Zr771   2.419   1_554  S
O165        C176   1.289       .  A
O166       Zr171   2.422       .  S
O166        C177   1.289       .  A
O167       Zr201   2.465       .  S
O167        C177   1.297       .  A
O168       Zr200   2.473       .  S
O168        C176   1.299       .  A
O169       Zr171   2.443       .  S
O169        C175   1.293       .  A
O170       Zr171   2.446       .  S
O170        C174   1.293       .  A
Zr171       O765   2.398       .  S
Zr171       O172   2.330       .  S
Zr171       O181   2.336       .  S
Zr171       O773   2.339       .  S
Zr171       O779   2.339       .  S
O172       Zr198   2.345       .  S
O172       Zr201   2.340       .  S
O173       Zr200   2.346       .  S
O173       Zr771   2.332   1_554  S
O173       Zr799   2.335   1_554  S
C174       C1065   1.487       .  S
C175       C1049   1.486       .  S
C176        C361   1.488       .  S
C177        C385   1.483       .  S
H178        O179   0.963       .  S
O179       Zr200   2.353       .  S
O179       Zr771   2.339   1_554  S
O179       Zr798   2.343       .  S
H180        O181   0.967       .  S
O181       Zr199   2.348       .  S
O181       Zr201   2.349       .  S
O182       Zr198   2.434       .  S
O182        C205   1.291       .  A
O183       Zr199   2.447       .  S
O183        C206   1.294       .  A
O184       Zr200   2.452       .  S
O184        C207   1.296       .  A
O185       Zr201   2.449       .  S
O185        C208   1.295       .  A
O186       Zr201   2.436       .  S
O186        C209   1.293       .  A
O187       Zr200   2.449       .  S
O187        C210   1.295       .  A
O188       Zr802   2.399   1_554  S
O188        C211   1.285       .  A
O189       Zr202   2.412       .  S
O189        C212   1.288       .  A
O190       Zr200   2.479       .  S
O190        C211   1.300       .  A
O191       Zr201   2.450       .  S
O191        C212   1.294       .  A
O192       Zr798   2.457       .  S
O192        C207   1.296       .  A
O193       Zr799   2.446   1_554  S
O193        C210   1.295       .  A
O194       Zr199   2.450       .  S
O194        C209   1.296       .  A
O195       Zr198   2.439       .  S
O195        C208   1.293       .  A
O196       Zr202   2.467       .  S
O196        C205   1.297       .  A
O197       Zr202   2.446       .  S
O197        C206   1.293       .  A
Zr198       O792   2.463       .  S
Zr198       O216   2.343       .  S
Zr198       O779   2.341       .  S
Zr198       O804   2.344       .  S
Zr199       O793   2.451       .  S
Zr199       O203   2.344       .  S
Zr199       O773   2.337       .  S
Zr199       O814   2.339       .  S
Zr200       O204   2.347       .  S
Zr200       O214   2.348       .  S
Zr201       O203   2.348       .  S
Zr201       O216   2.349       .  S
Zr202       O788   2.404       .  S
Zr202       O203   2.341       .  S
Zr202       O216   2.331       .  S
Zr202       O804   2.342       .  S
Zr202       O814   2.341       .  S
O204       Zr798   2.343       .  S
O204       Zr802   2.341   1_554  S
C205       C1009   1.489       .  S
C206       C1025   1.485       .  S
C207        C233   1.496       .  S
C208        C257   1.489       .  S
C209        C273   1.488       .  S
C210        C217   1.484       .  S
C211        C353   1.487       .  S
C212        C401   1.471       .  S
H213        O214   0.964       .  S
O214       Zr799   2.348   1_554  S
O214       Zr802   2.334   1_554  S
H215        O216   0.965       .  S
C217        C218   1.407       .  A
C217        C222   1.407       .  A
C218        C219   1.400       .  A
C218        H227   1.083       .  S
C219        C220   1.404       .  A
C219        H228   1.083       .  S
C220        C226   1.410       .  A
C220        C221   1.415       .  A
C221        C223   1.402       .  A
C221        C222   1.407       .  A
C222        H229   1.084       .  S
C223        C224   1.398       .  A
C223        H230   1.083       .  S
C224        C225   1.405       .  A
C224        H231   1.083       .  S
C225        C226   1.410       .  A
C226        H232   1.084       .  S
C233        C234   1.409       .  A
C233        C238   1.412       .  A
C234        C235   1.398       .  A
C234        H243   1.083       .  S
C235        C236   1.401       .  A
C235        H244   1.084       .  S
C236        C242   1.408       .  A
C236        C237   1.413       .  A
C237        C239   1.403       .  A
C237        C238   1.411       .  A
C238        H245   1.084       .  S
C239        C240   1.400       .  A
C239        H246   1.084       .  S
C240        C241   1.410       .  A
C240        H247   1.083       .  S
C241        C242   1.409       .  A
C242        H248   1.084       .  S
C249        C250   1.409       .  A
C249        C254   1.409       .  A
C250        C251   1.397       .  A
C250        H259   1.083       .  S
C251        C252   1.400       .  A
C251        H260   1.084       .  S
C252        C258   1.406       .  A
C252        C253   1.414       .  A
C253        C255   1.401       .  A
C253        C254   1.407       .  A
C254        H261   1.084       .  S
C255        C256   1.398       .  A
C255        H262   1.084       .  S
C256        C257   1.409       .  A
C256        H263   1.083       .  S
C257        C258   1.408       .  A
C258        H264   1.084       .  S
C265        C266   1.408       .  A
C265        C270   1.410       .  A
C266        C267   1.398       .  A
C266        H275   1.083       .  S
C267        C268   1.401       .  A
C267        H276   1.084       .  S
C268        C274   1.406       .  A
C268        C269   1.413       .  A
C269        C271   1.401       .  A
C269        C270   1.406       .  A
C270        H277   1.084       .  S
C271        C272   1.397       .  A
C271        H278   1.084       .  S
C272        C273   1.409       .  A
C272        H279   1.083       .  S
C273        C274   1.408       .  A
C274        H280   1.084       .  S
C281        C282   1.410       .  A
C281        C286   1.407       .  A
C282        C283   1.396       .  A
C282        H291   1.083       .  S
C283        C284   1.399       .  A
C283        H292   1.084       .  S
C284        C290   1.409       .  A
C284        C285   1.416       .  A
C285        C287   1.400       .  A
C285        C286   1.411       .  A
C286        H293   1.084       .  S
C287        C288   1.398       .  A
C287        H294   1.084       .  S
C288        C289   1.410       .  A
C288        H295   1.083       .  S
C289        C290   1.405       .  A
C290        H296   1.084       .  S
C297        C298   1.410       .  A
C297        C302   1.406       .  A
C298        C299   1.396       .  A
C298        H307   1.083       .  S
C299        C300   1.398       .  A
C299        H308   1.084       .  S
C300        C306   1.410       .  A
C300        C301   1.417       .  A
C301        C303   1.399       .  A
C301        C302   1.411       .  A
C302        H309   1.084       .  S
C303        C304   1.397       .  A
C303        H310   1.084       .  S
C304        C305   1.412       .  A
C304        H311   1.082       .  S
C305        C306   1.404       .  A
C306        H312   1.084       .  S
C313        C314   1.409       .  A
C313        C318   1.408       .  A
C314        C315   1.397       .  A
C314        H323   1.083       .  S
C315        C316   1.399       .  A
C315        H324   1.084       .  S
C316        C322   1.409       .  A
C316        C317   1.416       .  A
C317        C319   1.403       .  A
C317        C318   1.414       .  A
C318        H325   1.084       .  S
C319        C320   1.402       .  A
C319        H326   1.084       .  S
C320        C321   1.409       .  A
C320        H327   1.084       .  S
C321        C322   1.404       .  A
C322        H328   1.084       .  S
C329        C330   1.413       .  A
C329        C334   1.404       .  A
C330        C331   1.398       .  A
C330        H339   1.083       .  S
C331        C332   1.399       .  A
C331        H340   1.084       .  S
C332        C338   1.411       .  A
C332        C333   1.416       .  A
C333        C335   1.397       .  A
C333        C334   1.408       .  A
C334        H341   1.084       .  S
C335        C336   1.394       .  A
C335        H342   1.084       .  S
C336        C337   1.412       .  A
C336        H343   1.083       .  S
C337        C338   1.407       .  A
C338        H344   1.084       .  S
C345        C346   1.413       .  A
C345        C350   1.402       .  A
C346        C347   1.394       .  A
C346        H355   1.083       .  S
C347        C348   1.397       .  A
C347        H356   1.084       .  S
C348        C354   1.407       .  A
C348        C349   1.417       .  A
C349        C351   1.396       .  A
C349        C350   1.406       .  A
C350        H357   1.084       .  S
C351        C352   1.394       .  A
C351        H358   1.084       .  S
C352        C353   1.413       .  A
C352        H359   1.083       .  S
C353        C354   1.403       .  A
C354        H360   1.084       .  S
C361        C362   1.410       .  A
C361        C366   1.404       .  A
C362        C363   1.397       .  A
C362        H371   1.082       .  S
C363        C364   1.399       .  A
C363        H372   1.084       .  S
C364        C370   1.412       .  A
C364        C365   1.417       .  A
C365        C367   1.398       .  A
C365        C366   1.410       .  A
C366        H373   1.084       .  S
C367        C368   1.396       .  A
C367        H374   1.084       .  S
C368        C369   1.412       .  A
C368        H375   1.083       .  S
C369        C370   1.406       .  A
C370        H376   1.084       .  S
C377        C378   1.407       .  A
C377        C382   1.406       .  A
C378        C379   1.397       .  A
C378        H387   1.083       .  S
C379        C380   1.401       .  A
C379        H388   1.083       .  S
C380        C386   1.409       .  A
C380        C381   1.416       .  A
C381        C383   1.401       .  A
C381        C382   1.409       .  A
C382        H389   1.084       .  S
C383        C384   1.397       .  A
C383        H390   1.084       .  S
C384        C385   1.408       .  A
C384        H391   1.083       .  S
C385        C386   1.405       .  A
C386        H392   1.084       .  S
C393        C394   1.409       .  A
C393        C398   1.394       .  A
C394        C395   1.394       .  A
C394        H403   1.082       .  S
C395        C396   1.399       .  A
C395        H404   1.084       .  S
C396        C402   1.403       .  A
C396        C397   1.418       .  A
C397        C399   1.395       .  A
C397        C398   1.398       .  A
C398        H405   1.085       .  S
C399        C400   1.390       .  A
C399        H406   1.084       .  S
C400        C401   1.406       .  A
C400        H407   1.083       .  S
C401        C402   1.403       .  A
C402        H408   1.085       .  S
C409        C805   1.485       .  S
C409        C410   1.406       .  A
C409       C1014   1.410       .  A
C410        C411   1.396       .  A
C410        H419   1.083       .  S
C411        C412   1.400       .  A
C411        H420   1.084       .  S
C412        C418   1.402       .  A
C412       C1013   1.413       .  A
C413        C415   1.405       .  A
C413        C414   1.408       .  A
C413       C1012   1.412       .  A
C414       C1009   1.413       .  A
C414        H421   1.084       .  S
C415        C416   1.400       .  A
C415        H422   1.084       .  S
C416       C1017   1.407       .  A
C416        H423   1.083       .  S
C417        C418   1.406       .  A
C417       C1016   1.409       .  A
C418        H424   1.084       .  S
C425        C806   1.485       .  S
C425        C430   1.408   1_556  A
C425       C1026   1.407       .  A
C426        C427   1.398       .  A
C426       C1025   1.406       .  A
C426        H435   1.083       .  S
C427        C428   1.402       .  A
C427        H436   1.084       .  S
C428        C434   1.406       .  A
C428        C429   1.413       .  A
C429       C1031   1.404       .  A
C429       C1030   1.408       .  A
C430       C1029   1.407       .  A
C430        H437   1.084       .  S
C431        C432   1.399       .  A
C431       C1029   1.402       .  A
C431        H438   1.084       .  S
C432        C433   1.406       .  A
C432        H439   1.083       .  S
C433       C1034   1.408   1_554  A
C434       C1033   1.408       .  A
C434        H440   1.084       .  S
C441        C442   1.409       .  A
C441       C1046   1.410   1_556  A
C442        C443   1.401       .  A
C442        H451   1.083       .  S
C443        C444   1.403       .  A
C443        H452   1.084       .  S
C444        C450   1.407       .  A
C444       C1045   1.413   1_556  A
C445        C447   1.403       .  A
C445        C446   1.407       .  A
C445       C1044   1.413       .  A
C446       C1041   1.411       .  A
C446        H453   1.084       .  S
C447        C448   1.399       .  A
C447        H454   1.084       .  S
C448       C1049   1.409       .  A
C448        H455   1.083       .  S
C449        C775   1.485       .  S
C449        C450   1.409   1_554  A
C449       C1048   1.407       .  A
C450        H456   1.084       .  S
C457        C462   1.408   1_556  A
C457       C1058   1.407       .  A
C458        C459   1.396       .  A
C458       C1057   1.405       .  A
C458        H467   1.083       .  S
C459        C460   1.401       .  A
C459        H468   1.084       .  S
C460        C466   1.403       .  A
C460       C1061   1.413       .  A
C461        C463   1.402       .  A
C461        C462   1.407       .  A
C461       C1060   1.414   1_554  A
C462        H469   1.084       .  S
C463        C464   1.399       .  A
C463        H470   1.084       .  S
C464        C465   1.407       .  A
C464        H471   1.082       .  S
C465        C774   1.485   1_554  S
C465       C1066   1.407   1_554  A
C466       C1065   1.406       .  A
C466        H472   1.084       .  S
C473       C1352   1.481       .  S
C473        C478   1.404   1_565  A
C473       C1674   1.408       .  A
C474        C475   1.395       .  A
C474       C1673   1.408       .  A
C474        H483   1.083       .  S
C475        C476   1.399       .  A
C475        H484   1.084       .  S
C476        C482   1.405       .  A
C476       C1677   1.416       .  A
C477        C479   1.400       .  A
C477        C478   1.407       .  A
C477       C1676   1.417   1_545  A
C478        H485   1.084       .  S
C479        C480   1.396       .  A
C479        H486   1.084       .  S
C480        C481   1.408       .  A
C480        H487   1.084       .  S
C481       C1682   1.402   1_545  A
C482       C1681   1.402       .  A
C482        H488   1.084       .  S
C489       C1351   1.473       .  S
C489        C490   1.409       .  A
C489       C1694   1.400   1_565  A
C490        C491   1.390       .  A
C490        H499   1.083       .  S
C491        C492   1.395       .  A
C491        H500   1.084       .  S
C492        C498   1.402       .  A
C492       C1693   1.418   1_565  A
C493        C495   1.398       .  A
C493        C494   1.402       .  A
C493       C1692   1.418       .  A
C494       C1689   1.401       .  A
C494        H501   1.085       .  S
C495        C496   1.393       .  A
C495        H502   1.084       .  S
C496       C1697   1.409       .  A
C496        H503   1.084       .  S
C497        C498   1.398   1_545  A
C497       C1696   1.412       .  A
C498        H504   1.084       .  S
C505       C1321   1.491       .  S
C505        C506   1.410       .  A
C505       C1710   1.407   1_545  A
C506        C507   1.399       .  A
C506        H515   1.083       .  S
C507        C508   1.401       .  A
C507        H516   1.084       .  S
C508        C514   1.413       .  A
C508       C1709   1.416   1_545  A
C509        C511   1.400       .  A
C509        C510   1.410       .  A
C509       C1708   1.415       .  A
C510       C1705   1.406       .  A
C510        H517   1.084       .  S
C511        C512   1.398       .  A
C511        H518   1.084       .  S
C512       C1713   1.411       .  A
C512        H519   1.083       .  S
C513        C514   1.408   1_565  A
C513       C1712   1.409       .  A
C514        H520   1.084       .  S
C521        C526   1.403   1_545  A
C521       C1722   1.413       .  A
C522        C523   1.399       .  A
C522       C1721   1.409       .  A
C522        H531   1.084       .  S
C523        C524   1.401       .  A
C523        H532   1.084       .  S
C524        C530   1.412       .  A
C524       C1725   1.418       .  A
C525        C527   1.397       .  A
C525        C526   1.410       .  A
C525       C1724   1.418   1_565  A
C526        H533   1.084       .  S
C527        C528   1.394       .  A
C527        H534   1.084       .  S
C528        C529   1.411   1_565  A
C528        H535   1.083       .  S
C529       C1320   1.486       .  S
C529       C1730   1.405       .  A
C530       C1729   1.405       .  A
C530        H536   1.084       .  S
C537        C542   1.411       .  A
C537       C2938   1.406   1_455  A
C538        C539   1.396       .  A
C538       C2937   1.409       .  A
C538        H547   1.083       .  S
C539        C540   1.400       .  A
C539        H548   1.084       .  S
C540        C546   1.405       .  A
C540       C2941   1.414       .  A
C541        C543   1.404       .  A
C541        C542   1.409       .  A
C541       C2940   1.414       .  A
C542        H549   1.084       .  S
C543        C544   1.400       .  A
C543        H550   1.084       .  S
C544        C545   1.408       .  A
C544        H551   1.083       .  S
C545       C2946   1.405   1_455  A
C546       C2945   1.407       .  A
C546        H552   1.084       .  S
C553        C554   1.410       .  A
C553       C2958   1.408       .  A
C554        C555   1.400       .  A
C554        H563   1.083       .  S
C555        C556   1.403       .  A
C555        H564   1.084       .  S
C556        C562   1.406       .  A
C556       C2957   1.412       .  A
C557        C559   1.401       .  A
C557        C558   1.403       .  A
C557       C2956   1.413       .  A
C558       C2953   1.408       .  A
C558        H565   1.084       .  S
C559        C560   1.397       .  A
C559        H566   1.084       .  S
C560       C2961   1.409       .  A
C560        H567   1.083       .  S
C561        C562   1.411       .  A
C561       C2960   1.407       .  A
C562        H568   1.084       .  S
C569        C574   1.411   1_655  A
C569       C2970   1.407       .  A
C570        C571   1.398       .  A
C570       C2969   1.408       .  A
C570        H579   1.083       .  S
C571        C572   1.401       .  A
C571        H580   1.084       .  S
C572        C578   1.405       .  A
C572       C2973   1.413       .  A
C573        C575   1.402   1_655  A
C573        C574   1.406   1_655  A
C573       C2972   1.412       .  A
C574        H581   1.084       .  S
C575        C576   1.399       .  A
C575        H582   1.084       .  S
C576        C577   1.409   1_455  A
C576        H583   1.083       .  S
C577       C2978   1.409       .  A
C578       C2977   1.408       .  A
C578        H584   1.084       .  S
C585        C586   1.408       .  A
C585       C2990   1.407       .  A
C586        C587   1.399       .  A
C586        H595   1.083       .  S
C587        C588   1.403       .  A
C587        H596   1.084       .  S
C588        C594   1.407       .  A
C588       C2989   1.413       .  A
C589        C591   1.401       .  A
C589        C590   1.407       .  A
C589       C2988   1.413       .  A
C590       C2985   1.408       .  A
C590        H597   1.084       .  S
C591        C592   1.397       .  A
C591        H598   1.084       .  S
C592       C2993   1.408       .  A
C592        H599   1.083       .  S
C593        C594   1.411   1_655  A
C593       C2992   1.407       .  A
C594        H600   1.084       .  S
O601       Zr637   2.439   1_545  S
O601        C612   1.293       .  A
O602       Zr636   2.447   1_455  S
O602        C613   1.294       .  A
O603       Zr609   2.431       .  S
O603        C614   1.291       .  A
O604      Zr3009   2.452       .  S
O604        C615   1.295       .  A
O605       Zr639   2.441       .  S
O605        C615   1.293       .  A
O606       Zr638   2.464   1_545  S
O606        C614   1.298       .  A
O607        C613   1.294       .  A
O608       Zr609   2.450       .  S
O608        C612   1.295       .  A
Zr609      O3004   2.443   1_455  S
Zr609      O2410   2.343   1_455  S
Zr609       O611   2.347       .  S
Zr609      O3019   2.339   1_455  S
O610      Zr2409   2.345   1_556  S
O610      Zr3036   2.331       .  S
O611       Zr637   2.355   1_545  S
O611       Zr638   2.355   1_545  S
C612       C1185   1.491       .  S
C613       C1137   1.491       .  S
C614       C1057   1.486       .  S
C615       C1033   1.486       .  S
H616        O617   0.964       .  S
O617       Zr636   2.335   1_455  S
H618        O619   0.966       .  S
O619      Zr3009   2.341       .  S
O619      Zr3037   2.350   1_545  S
O619       Zr639   2.352       .  S
O620      Zr1836   2.432       .  S
O620        C643   1.291       .  A
O621      Zr1837   2.440       .  S
O621        C644   1.293       .  A
O622        C645   1.299       .  A
O623        C646   1.294       .  A
O624       Zr639   2.414       .  S
O624        C647   1.289       .  A
O625       Zr638   2.436       .  S
O625        C648   1.293       .  A
O626       Zr640   2.452   1_455  S
O626        C649   1.295       .  A
O627      Zr3040   2.441       .  S
O627        C650   1.294       .  A
O628      Zr1838   2.442       .  S
O628        C649   1.293       .  A
O629      Zr1839   2.439       .  S
O629        C650   1.293       .  A
O630       Zr636   2.378   1_455  S
O630        C645   1.281       .  A
O631       Zr637   2.488       .  S
O631        C648   1.302       .  A
O632      Zr3037   2.504       .  S
O632        C647   1.305   1_565  A
O633      Zr3036   2.412       .  S
O633        C646   1.287       .  A
O634        C643   1.296       .  A
O635       Zr640   2.450       .  S
O635        C644   1.295       .  A
Zr636      O1820   2.448   1_645  S
Zr636      O3033   2.405       .  S
Zr636      O3010   2.332       .  S
Zr636      O1842   2.340   1_645  S
Zr636      O4254   2.333   1_545  S
Zr637      O1821   2.445   1_455  S
Zr637      O3032   2.503   1_465  S
Zr637      O3019   2.350   1_465  S
Zr637      O4241   2.345   1_455  S
Zr637      O1852   2.352       .  S
Zr638      O1828   2.452       .  S
Zr638      O1242   2.335       .  S
Zr638      O1852   2.357       .  S
Zr639      O1829   2.431   1_545  S
Zr639      O1841   2.349   1_545  S
Zr639      O1254   2.339   1_545  S
Zr640      O3027   2.446       .  S
Zr640      O3041   2.342       .  S
Zr640      O2454   2.349       .  S
Zr640       O652   2.337   1_655  S
O641      Zr4237   2.339       .  S
O641      Zr1839   2.350       .  S
O641      Zr3040   2.336       .  S
O642      Zr1836   2.342   1_455  S
O642      Zr1238   2.335       .  S
C643       C1153   1.484       .  S
C644       C1169   1.488       .  S
C645       C1097   1.474       .  S
C646       C1081   1.476       .  S
C647       C1121   1.502       .  S
C648       C1113   1.495       .  S
C649       C1041   1.490       .  S
C650       C1017   1.483       .  S
H651        O652   0.964       .  S
O652      Zr1837   2.349   1_455  S
O652      Zr1838   2.350       .  S
H653        O654   0.965       .  S
O654      Zr4236   2.336       .  S
O654      Zr1239   2.344   1_556  S
O654      Zr2440   2.351       .  S
O655       Zr691   2.444       .  S
O655        C666   1.295       .  A
O656       Zr690   2.448       .  S
O656        C667   1.296       .  A
O657       Zr663   2.471   1_455  S
O657        C668   1.298       .  A
O658      Zr3063   2.477       .  S
O658        C669   1.299       .  A
O659       Zr693   2.415       .  S
O659        C669   1.288       .  A
O660       Zr692   2.398       .  S
O660        C668   1.285       .  A
O661       Zr663   2.432       .  S
O661        C667   1.293       .  A
O662       Zr663   2.453   1_455  S
O662        C666   1.296       .  A
Zr663      O3058   2.478       .  S
Zr663      O3064   2.346       .  S
Zr663       O665   2.347   1_655  S
Zr663      O3073   2.342       .  S
Zr663       O671   2.348   1_655  S
O664      Zr3063   2.348       .  S
O664      Zr3090   2.353       .  S
O664       Zr693   2.328       .  S
O665       Zr691   2.350       .  S
O665       Zr692   2.332       .  S
C666       C1193   1.491       .  S
C667       C1145   1.485   1_655  S
C668        C921   1.486       .  S
C669        C881   1.489       .  S
H670        O671   0.964       .  S
O671       Zr690   2.344   1_455  S
O671       Zr692   2.325       .  S
H672        O673   0.965       .  S
O673      Zr3063   2.344       .  S
O673      Zr3091   2.351       .  S
O673       Zr693   2.326       .  S
O674       Zr690   2.448       .  S
O674        C697   1.296       .  A
O675       Zr691   2.461       .  S
O675        C698   1.298       .  A
O676       Zr692   2.432       .  S
O676        C699   1.291       .  A
O677       Zr693   2.404       .  S
O677        C700   1.286       .  A
O678       Zr693   2.412       .  S
O678        C701   1.287       .  A
O679       Zr692   2.424       .  S
O679        C702   1.290       .  A
O680       Zr694   2.468       .  S
O680        C703   1.298       .  A
O681      Zr3094   2.479       .  S
O681        C704   1.300       .  A
O682       Zr692   2.406       .  S
O682        C703   1.286       .  A
O683       Zr693   2.403       .  S
O683        C704   1.286       .  A
O684       Zr690   2.468   1_455  S
O684        C699   1.297       .  A
O685       Zr691   2.479       .  S
O685        C702   1.300       .  A
O686      Zr3091   2.467       .  S
O686        C701   1.297       .  A
O687      Zr3090   2.454       .  S
O687        C700   1.295       .  A
O688       Zr694   2.442       .  S
O688        C697   1.294   1_455  A
O689       Zr694   2.439       .  S
O689        C698   1.294       .  A
Zr690      O3087   2.469       .  S
Zr690      O3064   2.349       .  S
Zr690       O696   2.349   1_655  S
Zr690      O3108   2.338       .  S
Zr691      O3086   2.485   1_455  S
Zr691      O3073   2.349   1_455  S
Zr691      O3095   2.349   1_455  S
Zr691       O706   2.355       .  S
Zr692       O696   2.331       .  S
Zr692       O706   2.338       .  S
Zr693       O695   2.332       .  S
Zr693       O708   2.331       .  S
Zr694      O3081   2.475   1_455  S
Zr694      O3095   2.350   1_455  S
Zr694       O696   2.349       .  S
Zr694      O3108   2.343   1_455  S
Zr694       O706   2.352       .  S
O695      Zr3091   2.346       .  S
O695      Zr3094   2.352       .  S
C697       C1161   1.483       .  S
C698       C1177   1.490   1_455  S
C699        C977   1.486       .  S
C700        C993   1.475       .  S
C701        C945   1.483       .  S
C702        C969   1.495       .  S
C703        C929   1.478       .  S
C704        C905   1.485       .  S
H705        O706   0.965       .  S
H707        O708   0.964       .  S
O708      Zr3090   2.344       .  S
O708      Zr3094   2.343       .  S
O709       Zr745   2.416       .  S
O709        C720   1.289       .  A
O710       Zr744   2.434       .  S
O710        C721   1.292       .  A
O711       Zr717   2.442       .  S
O711        C722   1.294       .  A
O712      Zr1917   2.449       .  S
O712        C723   1.294       .  A
O713       Zr747   2.467       .  S
O713        C723   1.299       .  A
O714       Zr746   2.442       .  S
O714        C722   1.294       .  A
O715       Zr717   2.464       .  S
O715        C721   1.298       .  A
O716       Zr717   2.472       .  S
O716        C720   1.298       .  A
Zr717      O1912   2.451       .  S
Zr717      O1918   2.351       .  S
Zr717       O719   2.343       .  S
Zr717      O1927   2.353       .  S
Zr717       O725   2.352       .  S
O718      Zr1917   2.348       .  S
O718      Zr1944   2.346   1_545  S
O718       Zr747   2.340       .  S
O719       Zr745   2.335       .  S
O719       Zr746   2.344       .  S
C720       C2329   1.485       .  S
C721       C2305   1.491       .  S
C722        C841   1.488       .  S
C723        C825   1.496       .  S
H724        O725   0.966       .  S
O725       Zr744   2.345       .  S
O725       Zr746   2.343       .  S
H726        O727   0.965       .  S
O727      Zr1917   2.352       .  S
O727      Zr1945   2.353       .  S
O727       Zr747   2.346       .  S
O728       Zr744   2.461       .  S
O728        C751   1.296       .  A
O729       Zr745   2.442       .  S
O729        C752   1.292       .  A
O730       Zr746   2.468       .  S
O730        C753   1.297       .  A
O731       Zr747   2.491       .  S
O731        C754   1.303       .  A
O732       Zr747   2.475       .  S
O732        C755   1.300       .  A
O733       Zr746   2.461       .  S
O733        C756   1.297       .  A
O734       Zr748   2.454       .  S
O734        C757   1.296       .  A
O735      Zr1948   2.443   1_545  S
O735        C758   1.294       .  A
O736       Zr746   2.435       .  S
O736        C757   1.292       .  A
O737       Zr747   2.439       .  S
O737        C758   1.294       .  A
O738       Zr744   2.404       .  S
O738        C753   1.286       .  A
O739       Zr745   2.419       .  S
O739        C756   1.289       .  A
O740      Zr1945   2.415       .  S
O740        C755   1.289       .  A
O741      Zr1944   2.394   1_545  S
O741        C754   1.284       .  A
O742       Zr748   2.409       .  S
O742        C751   1.287       .  A
O743       Zr748   2.430       .  S
O743        C752   1.291       .  A
Zr744      O1941   2.407       .  S
Zr744      O1918   2.343       .  S
Zr744       O750   2.336       .  S
Zr744      O1962   2.325       .  S
Zr745      O1940   2.425       .  S
Zr745      O1927   2.346       .  S
Zr745      O1949   2.327       .  S
Zr745       O760   2.329       .  S
Zr746       O750   2.350       .  S
Zr746       O760   2.344       .  S
Zr747       O749   2.357       .  S
Zr747       O762   2.348       .  S
Zr748      O1935   2.456       .  S
Zr748      O1949   2.336       .  S
Zr748       O750   2.345       .  S
Zr748      O1962   2.345       .  S
Zr748       O760   2.334       .  S
O749      Zr1945   2.325       .  S
O749      Zr1948   2.332   1_545  S
C751       C2289   1.482       .  S
C752       C2273   1.481       .  S
C753        C937   1.475       .  S
C754        C913   1.490       .  S
C755        C889   1.487       .  S
C756        C897   1.484       .  S
C757        C849   1.487       .  S
C758        C865   1.483       .  S
H759        O760   0.964       .  S
H761        O762   0.964       .  S
O762      Zr1944   2.321   1_545  S
O762      Zr1948   2.337   1_545  S
O763       Zr799   2.440       .  S
O763        C774   1.292       .  A
O764       Zr798   2.432       .  S
O764        C775   1.291       .  A
O765        C776   1.286       .  A
O766       Zr771   2.424       .  S
O766        C777   1.290       .  A
O767       Zr801   2.476       .  S
O767        C777   1.299       .  A
O768       Zr800   2.488       .  S
O768        C776   1.302       .  A
O769       Zr771   2.446   1_554  S
O769        C775   1.294       .  A
O770       Zr771   2.445       .  S
O770        C774   1.294       .  A
Zr771       O772   2.331       .  S
Zr771       O781   2.341       .  S
O772       Zr798   2.337   1_556  S
O772       Zr801   2.342       .  S
O773       Zr800   2.341       .  S
C776        C961   1.491       .  S
C777        C985   1.486       .  S
H778        O779   0.963       .  S
O779       Zr800   2.352       .  S
H780        O781   0.967       .  S
O781       Zr799   2.345       .  S
O781       Zr801   2.352       .  S
O782       Zr798   2.429       .  S
O782        C805   1.291       .  A
O783       Zr799   2.437       .  S
O783        C806   1.292       .  A
O784       Zr800   2.435       .  S
O784        C807   1.293       .  A
O785       Zr801   2.436       .  S
O785        C808   1.293       .  A
O786       Zr801   2.428       .  S
O786        C809   1.291       .  A
O787       Zr800   2.460       .  S
O787        C810   1.297       .  A
O788        C811   1.286       .  A
O789       Zr802   2.403       .  S
O789        C812   1.286       .  A
O790       Zr800   2.476       .  S
O790        C811   1.300       .  A
O791       Zr801   2.478       .  S
O791        C812   1.300       .  A
O792        C807   1.298       .  A
O793        C810   1.295       .  A
O794       Zr799   2.452       .  S
O794        C809   1.295       .  A
O795       Zr798   2.439   1_556  S
O795        C808   1.293       .  A
O796       Zr802   2.451   1_554  S
O796        C805   1.295       .  A
O797       Zr802   2.450       .  S
O797        C806   1.294       .  A
Zr798       O816   2.351   1_554  S
Zr799       O803   2.338       .  S
Zr800       O804   2.358       .  S
Zr800       O814   2.342       .  S
Zr801       O803   2.341       .  S
Zr801       O816   2.349       .  S
Zr802       O803   2.336       .  S
Zr802       O816   2.337       .  S
C807        C833   1.491       .  S
C808        C857   1.483       .  S
C809        C873   1.484       .  S
C810        C817   1.495       .  S
C811        C953   1.481       .  S
C812       C1001   1.482       .  S
H813        O814   0.964       .  S
H815        O816   0.965       .  S
C817        C818   1.409       .  A
C817        C822   1.409       .  A
C818        C819   1.403       .  A
C818        H827   1.083       .  S
C819        C820   1.405       .  A
C819        H828   1.083       .  S
C820        C826   1.415       .  A
C820        C821   1.414       .  A
C821        C823   1.402       .  A
C821        C822   1.411       .  A
C822        H829   1.084       .  S
C823        C824   1.399       .  A
C823        H830   1.083       .  S
C824        C825   1.406       .  A
C824        H831   1.083       .  S
C825        C826   1.414       .  A
C826        H832   1.084       .  S
C833        C834   1.410       .  A
C833        C838   1.409       .  A
C834        C835   1.398       .  A
C834        H843   1.083       .  S
C835        C836   1.401       .  A
C835        H844   1.084       .  S
C836        C842   1.407       .  A
C836        C837   1.413       .  A
C837        C839   1.401       .  A
C837        C838   1.408       .  A
C838        H845   1.084       .  S
C839        C840   1.398       .  A
C839        H846   1.084       .  S
C840        C841   1.408       .  A
C840        H847   1.083       .  S
C841        C842   1.409       .  A
C842        H848   1.084       .  S
C849        C850   1.409       .  A
C849        C854   1.407       .  A
C850        C851   1.398       .  A
C850        H859   1.083       .  S
C851        C852   1.401       .  A
C851        H860   1.084       .  S
C852        C858   1.404       .  A
C852        C853   1.413       .  A
C853        C855   1.400       .  A
C853        C854   1.404       .  A
C854        H861   1.084       .  S
C855        C856   1.396       .  A
C855        H862   1.084       .  S
C856        C857   1.407       .  A
C856        H863   1.083       .  S
C857        C858   1.408       .  A
C858        H864   1.084       .  S
C865        C866   1.408       .  A
C865        C870   1.407       .  A
C866        C867   1.397       .  A
C866        H875   1.083       .  S
C867        C868   1.401       .  A
C867        H876   1.084       .  S
C868        C874   1.404       .  A
C868        C869   1.413       .  A
C869        C871   1.400       .  A
C869        C870   1.402       .  A
C870        H877   1.084       .  S
C871        C872   1.395       .  A
C871        H878   1.084       .  S
C872        C873   1.409       .  A
C872        H879   1.083       .  S
C873        C874   1.407       .  A
C874        H880   1.084       .  S
C881        C882   1.410       .  A
C881        C886   1.406       .  A
C882        C883   1.397       .  A
C882        H891   1.083       .  S
C883        C884   1.399       .  A
C883        H892   1.084       .  S
C884        C890   1.409       .  A
C884        C885   1.416       .  A
C885        C887   1.400       .  A
C885        C886   1.410       .  A
C886        H893   1.084       .  S
C887        C888   1.398       .  A
C887        H894   1.084       .  S
C888        C889   1.410       .  A
C888        H895   1.083       .  S
C889        C890   1.405       .  A
C890        H896   1.084       .  S
C897        C898   1.410       .  A
C897        C902   1.404       .  A
C898        C899   1.397       .  A
C898        H907   1.083       .  S
C899        C900   1.399       .  A
C899        H908   1.084       .  S
C900        C906   1.409       .  A
C900        C901   1.416       .  A
C901        C903   1.398       .  A
C901        C902   1.406       .  A
C902        H909   1.084       .  S
C903        C904   1.394       .  A
C903        H910   1.084       .  S
C904        C905   1.411       .  A
C904        H911   1.083       .  S
C905        C906   1.404       .  A
C906        H912   1.084       .  S
C913        C914   1.415       .  A
C913        C918   1.401       .  A
C914        C915   1.396       .  A
C914        H923   1.083       .  S
C915        C916   1.397       .  A
C915        H924   1.084       .  S
C916        C922   1.409       .  A
C916        C917   1.417       .  A
C917        C919   1.395       .  A
C917        C918   1.406       .  A
C918        H925   1.084       .  S
C919        C920   1.391       .  A
C919        H926   1.084       .  S
C920        C921   1.413       .  A
C920        H927   1.083       .  S
C921        C922   1.405       .  A
C922        H928   1.084       .  S
C929        C930   1.409       .  A
C929        C934   1.402       .  A
C930        C931   1.396       .  A
C930        H939   1.083       .  S
C931        C932   1.399       .  A
C931        H940   1.084       .  S
C932        C938   1.406       .  A
C932        C933   1.417       .  A
C933        C935   1.398       .  A
C933        C934   1.405       .  A
C934        H941   1.084       .  S
C935        C936   1.394       .  A
C935        H942   1.084       .  S
C936        C937   1.408       .  A
C936        H943   1.084       .  S
C937        C938   1.402       .  A
C938        H944   1.084       .  S
C945        C946   1.409       .  A
C945        C950   1.407       .  A
C946        C947   1.392       .  A
C946        H955   1.083       .  S
C947        C948   1.396       .  A
C947        H956   1.084       .  S
C948        C954   1.403       .  A
C948        C949   1.416       .  A
C949        C951   1.401       .  A
C949        C950   1.409       .  A
C950        H957   1.084       .  S
C951        C952   1.398       .  A
C951        H958   1.084       .  S
C952        C953   1.411       .  A
C952        H959   1.083       .  S
C953        C954   1.401       .  A
C954        H960   1.084       .  S
C961        C962   1.414       .  A
C961        C966   1.405       .  A
C962        C963   1.395       .  A
C962        H971   1.083       .  S
C963        C964   1.398       .  A
C963        H972   1.084       .  S
C964        C970   1.409       .  A
C964        C965   1.416       .  A
C965        C967   1.399       .  A
C965        C966   1.411       .  A
C966        H973   1.084       .  S
C967        C968   1.399       .  A
C967        H974   1.084       .  S
C968        C969   1.413       .  A
C968        H975   1.083       .  S
C969        C970   1.406       .  A
C970        H976   1.084       .  S
C977        C978   1.407       .  A
C977        C982   1.407       .  A
C978        C979   1.398       .  A
C978        H987   1.084       .  S
C979        C980   1.400       .  A
C979        H988   1.084       .  S
C980        C986   1.410       .  A
C980        C981   1.417       .  A
C981        C983   1.402       .  A
C981        C982   1.413       .  A
C982        H989   1.084       .  S
C983        C984   1.400       .  A
C983        H990   1.084       .  S
C984        C985   1.409       .  A
C984        H991   1.084       .  S
C985        C986   1.405       .  A
C986        H992   1.084       .  S
C993        C994   1.408       .  A
C993        C998   1.402       .  A
C994        C995   1.392       .  A
C994       H1003   1.083       .  S
C995        C996   1.397       .  A
C995       H1004   1.084       .  S
C996       C1002   1.403       .  A
C996        C997   1.417       .  A
C997        C999   1.398       .  A
C997        C998   1.405       .  A
C998       H1005   1.084       .  S
C999       C1000   1.396       .  A
C999       H1006   1.084       .  S
C1000      C1001   1.411       .  A
C1000      H1007   1.083       .  S
C1001      C1002   1.401       .  A
C1002      H1008   1.084       .  S
C1009      C1010   1.405       .  A
C1010      C1011   1.398       .  A
C1010      H1019   1.083       .  S
C1011      C1012   1.402       .  A
C1011      H1020   1.084       .  S
C1012      C1018   1.404       .  A
C1013      C1015   1.402       .  A
C1013      C1014   1.404       .  A
C1014      H1021   1.084       .  S
C1015      C1016   1.397       .  A
C1015      H1022   1.084       .  S
C1016      H1023   1.083       .  S
C1017      C1018   1.407       .  A
C1018      H1024   1.084       .  S
C1025      C1030   1.410       .  A
C1026      C1027   1.398       .  A
C1026      H1035   1.083       .  S
C1027      C1028   1.402       .  A
C1027      H1036   1.084       .  S
C1028      C1034   1.406       .  A
C1028      C1029   1.414   1_556  A
C1030      H1037   1.084       .  S
C1031      C1032   1.401       .  A
C1031      H1038   1.084       .  S
C1032      C1033   1.407       .  A
C1032      H1039   1.083       .  S
C1034      H1040   1.084       .  S
C1041      C1042   1.408       .  A
C1042      C1043   1.397       .  A
C1042      H1051   1.083       .  S
C1043      C1044   1.400       .  A
C1043      H1052   1.084       .  S
C1044      C1050   1.404       .  A
C1045      C1047   1.402       .  A
C1045      C1046   1.407       .  A
C1046      H1053   1.084       .  S
C1047      C1048   1.398       .  A
C1047      H1054   1.084       .  S
C1048      H1055   1.083       .  S
C1049      C1050   1.407       .  A
C1050      H1056   1.084       .  S
C1057      C1062   1.412       .  A
C1058      C1059   1.398       .  A
C1058      H1067   1.083       .  S
C1059      C1060   1.401       .  A
C1059      H1068   1.084       .  S
C1060      C1066   1.406       .  A
C1061      C1063   1.406       .  A
C1061      C1062   1.409       .  A
C1062      H1069   1.084       .  S
C1063      C1064   1.403       .  A
C1063      H1070   1.084       .  S
C1064      C1065   1.408       .  A
C1064      H1071   1.083       .  S
C1066      H1072   1.084       .  S
C1073      C1952   1.481       .  S
C1073      C2274   1.410       .  A
C1073      C1078   1.401   1_565  A
C1074      C2273   1.406       .  A
C1074      C1075   1.397       .  A
C1074      H1083   1.083       .  S
C1075      C1076   1.402       .  A
C1075      H1084   1.084       .  S
C1076      C1082   1.401       .  A
C1076      C2277   1.413       .  A
C1077      C2276   1.417   1_545  A
C1077      C1079   1.398       .  A
C1077      C1078   1.405       .  A
C1078      H1085   1.084       .  S
C1079      C1080   1.393       .  A
C1079      H1086   1.084       .  S
C1080      C1081   1.407       .  A
C1080      H1087   1.084       .  S
C1081      C2282   1.405   1_545  A
C1082      C2281   1.407       .  A
C1082      H1088   1.084       .  S
C1089      C1951   1.475       .  S
C1089      C1090   1.410       .  A
C1089      C2294   1.402   1_565  A
C1090      C1091   1.388       .  A
C1090      H1099   1.083       .  S
C1091      C1092   1.394       .  A
C1091      H1100   1.084       .  S
C1092      C1098   1.400       .  A
C1092      C2293   1.418   1_565  A
C1093      C2292   1.415       .  A
C1093      C1095   1.397       .  A
C1093      C1094   1.403       .  A
C1094      C2289   1.404       .  A
C1094      H1101   1.084       .  S
C1095      C1096   1.393       .  A
C1095      H1102   1.084       .  S
C1096      C2297   1.411       .  A
C1096      H1103   1.083       .  S
C1097      C2296   1.412       .  A
C1097      C1098   1.397   1_545  A
C1098      H1104   1.084       .  S
C1105      C1921   1.487       .  S
C1105      C1106   1.409       .  A
C1105      C2310   1.408   1_545  A
C1106      C1107   1.396       .  A
C1106      H1115   1.084       .  S
C1107      C1108   1.399   1_545  A
C1107      H1116   1.083       .  S
C1108      C1114   1.411       .  A
C1108      C2309   1.416       .  A
C1109      C2308   1.415       .  A
C1109      C1111   1.400       .  A
C1109      C1110   1.410       .  A
C1110      C2305   1.408       .  A
C1110      H1117   1.084       .  S
C1111      C1112   1.398       .  A
C1111      H1118   1.084       .  S
C1112      C2313   1.412       .  A
C1112      H1119   1.083       .  S
C1113      C2312   1.411       .  A
C1113      C1114   1.406       .  A
C1114      H1120   1.084   1_565  S
C1121      C2322   1.415       .  A
C1121      C1126   1.408       .  A
C1122      C2321   1.411       .  A
C1122      C1123   1.400       .  A
C1122      H1131   1.084       .  S
C1123      C1124   1.401       .  A
C1123      H1132   1.084       .  S
C1124      C1130   1.413       .  A
C1124      C2325   1.418       .  A
C1125      C2324   1.416       .  A
C1125      C1127   1.399       .  A
C1125      C1126   1.414       .  A
C1126      H1133   1.084       .  S
C1127      C1128   1.398       .  A
C1127      H1134   1.083       .  S
C1128      C1129   1.412       .  A
C1128      H1135   1.083       .  S
C1129      C1920   1.496       .  S
C1129      C2330   1.408       .  A
C1130      C2329   1.407       .  A
C1130      H1136   1.084       .  S
C1137      C3538   1.409       .  A
C1137      C1142   1.410       .  A
C1138      C3537   1.408       .  A
C1138      C1139   1.398       .  A
C1138      H1147   1.083       .  S
C1139      C1140   1.400       .  A
C1139      H1148   1.084       .  S
C1140      C1146   1.407       .  A
C1140      C3541   1.413       .  A
C1141      C3540   1.414       .  A
C1141      C1143   1.400       .  A
C1141      C1142   1.407       .  A
C1142      H1149   1.084       .  S
C1143      C1144   1.396       .  A
C1143      H1150   1.084       .  S
C1144      C1145   1.409       .  A
C1144      H1151   1.083       .  S
C1145      C3546   1.407       .  A
C1146      C3545   1.408       .  A
C1146      H1152   1.084       .  S
C1153      C1154   1.409   1_655  A
C1153      C3558   1.404       .  A
C1154      C1155   1.401       .  A
C1154      H1163   1.083       .  S
C1155      C1156   1.404       .  A
C1155      H1164   1.084       .  S
C1156      C1162   1.407       .  A
C1156      C3557   1.413   1_455  A
C1157      C3556   1.414       .  A
C1157      C1159   1.401       .  A
C1157      C1158   1.407       .  A
C1158      C3553   1.407       .  A
C1158      H1165   1.084       .  S
C1159      C1160   1.398       .  A
C1159      H1166   1.084       .  S
C1160      C3561   1.407       .  A
C1160      H1167   1.083       .  S
C1161      C3560   1.406       .  A
C1161      C1162   1.410   1_655  A
C1162      H1168   1.084       .  S
C1169      C3570   1.407       .  A
C1169      C1174   1.409   1_655  A
C1170      C3569   1.408       .  A
C1170      C1171   1.400       .  A
C1170      H1179   1.083       .  S
C1171      C1172   1.403       .  A
C1171      H1180   1.084       .  S
C1172      C1178   1.408       .  A
C1172      C3573   1.413       .  A
C1173      C3572   1.413       .  A
C1173      C1175   1.401   1_655  A
C1173      C1174   1.405   1_655  A
C1174      H1181   1.084       .  S
C1175      C1176   1.398       .  A
C1175      H1182   1.084       .  S
C1176      C1177   1.409   1_455  A
C1176      H1183   1.083       .  S
C1177      C3578   1.409       .  A
C1178      C3577   1.410       .  A
C1178      H1184   1.084       .  S
C1185      C1186   1.409       .  A
C1185      C3590   1.409       .  A
C1186      C1187   1.399       .  A
C1186      H1195   1.083       .  S
C1187      C1188   1.402       .  A
C1187      H1196   1.084       .  S
C1188      C1194   1.409       .  A
C1188      C3589   1.413       .  A
C1189      C3588   1.413       .  A
C1189      C1191   1.401       .  A
C1189      C1190   1.406       .  A
C1190      C3585   1.410       .  A
C1190      H1197   1.084       .  S
C1191      C1192   1.398       .  A
C1191      H1198   1.084       .  S
C1192      C3593   1.410       .  A
C1192      H1199   1.083       .  S
C1193      C3592   1.409       .  A
C1193      C1194   1.410       .  A
C1194      H1200   1.084       .  S
O1201     Zr1237   2.440       .  S
O1201      C1212   1.293       .  A
O1202     Zr1236   2.437       .  S
O1202      C1213   1.292       .  A
O1203     Zr1209   2.453       .  S
O1203      C1214   1.296       .  A
O1204     Zr3609   2.439       .  S
O1204      C1215   1.292       .  A
O1205     Zr1239   2.453       .  S
O1205      C1215   1.295       .  A
O1206     Zr1238   2.451   1_554  S
O1206      C1214   1.295       .  A
O1207     Zr1809   2.437       .  S
O1207      C1213   1.292       .  A
O1208     Zr1209   2.440       .  S
O1208      C1212   1.293       .  A
Zr1209     O3604   2.446   1_455  S
Zr1209     O1807   2.441   1_554  S
Zr1209     O4210   2.346   1_454  S
Zr1209     O1211   2.346       .  S
Zr1209     O3619   2.346   1_455  S
Zr1209     O1817   2.342   1_554  S
O1210     Zr4209   2.347       .  S
O1210     Zr3636   2.326       .  S
O1210     Zr1839   2.327       .  S
O1211     Zr1237   2.351       .  S
O1211     Zr1238   2.353   1_554  S
C1212      C1785   1.487       .  S
C1213      C1737   1.484       .  S
C1214      C1657   1.495       .  S
C1215      C1633   1.481       .  S
H1216      O1217   0.964       .  S
O1217     Zr1809   2.336       .  S
O1217     Zr1236   2.334       .  S
O1217     Zr1838   2.332       .  S
H1218      O1219   0.966       .  S
O1219     Zr3609   2.344       .  S
O1219     Zr3637   2.348       .  S
O1219     Zr1239   2.337       .  S
O1220      C1243   1.292   1_455  A
O1221      C1244   1.296       .  A
O1222     Zr1838   2.469       .  S
O1222      C1245   1.298       .  A
O1223     Zr1839   2.466       .  S
O1223      C1246   1.297       .  A
O1224     Zr1239   2.412       .  S
O1224      C1247   1.287       .  A
O1225     Zr1238   2.435   1_554  S
O1225      C1248   1.293       .  A
O1226     Zr1240   2.453   1_455  S
O1226      C1249   1.296       .  A
O1227     Zr3640   2.446       .  S
O1227      C1250   1.295   1_556  A
O1228      C1249   1.295       .  A
O1229      C1250   1.291       .  A
O1230     Zr1236   2.388       .  S
O1230      C1245   1.283       .  A
O1231     Zr1237   2.476       .  S
O1231      C1248   1.300       .  A
O1232     Zr3637   2.493       .  S
O1232      C1247   1.302       .  A
O1233     Zr3636   2.407       .  S
O1233      C1246   1.285       .  A
O1234     Zr1840   2.458       .  S
O1234      C1243   1.297       .  A
O1235     Zr1240   2.449   1_554  S
O1235      C1244   1.295       .  A
Zr1236     O3633   2.406   1_455  S
Zr1236     O3610   2.332   1_455  S
Zr1236     O2454   2.333   1_455  S
Zr1237     O3632   2.487   1_455  S
Zr1237     O3619   2.350   1_455  S
Zr1237     O2441   2.338   1_455  S
Zr1238     O1822   2.461       .  S
Zr1238     O1817   2.342       .  S
Zr1239     O1823   2.429   1_554  S
Zr1239     O1810   2.329   1_554  S
Zr1240     O3627   2.446       .  S
Zr1240     O1834   2.455       .  S
Zr1240     O3641   2.346   1_556  S
Zr1240     O1842   2.340   1_655  S
Zr1240     O4254   2.352       .  S
Zr1240     O1252   2.341   1_656  S
O1241     Zr2437   2.350       .  S
O1241     Zr3640   2.346   1_554  S
O1242     Zr1840   2.342   1_455  S
C1243      C1753   1.491   1_655  S
C1244      C1769   1.495       .  S
C1245      C1697   1.469       .  S
C1246      C1681   1.479       .  S
C1247      C1721   1.485       .  S
C1248      C1713   1.494       .  S
C1249      C1641   1.493       .  S
C1250      C1617   1.485       .  S
H1251      O1252   0.964       .  S
H1253      O1254   0.966       .  S
O1254     Zr2436   2.335   1_565  S
O1254     Zr4240   2.351       .  S
O1255     Zr1291   2.442       .  S
O1255      C1266   1.295       .  A
O1256     Zr1290   2.444       .  S
O1256      C1267   1.295   1_655  A
O1257     Zr1263   2.464   1_455  S
O1257      C1268   1.297       .  A
O1258     Zr3663   2.468       .  S
O1258      C1269   1.298       .  A
O1259     Zr1293   2.401       .  S
O1259      C1269   1.285       .  A
O1260     Zr1292   2.409       .  S
O1260      C1268   1.287       .  A
O1261     Zr1263   2.442       .  S
O1261      C1267   1.294   1_655  A
O1262     Zr1263   2.453       .  S
O1262      C1266   1.296       .  A
Zr1263     O3658   2.474       .  S
Zr1263     O3664   2.347       .  S
Zr1263     O1265   2.343   1_655  S
Zr1263     O3673   2.345       .  S
Zr1263     O1271   2.349   1_655  S
O1264     Zr3663   2.342       .  S
O1264     Zr3690   2.346       .  S
O1264     Zr1293   2.326       .  S
O1265     Zr1291   2.343   1_455  S
O1265     Zr1292   2.329       .  S
C1266      C1793   1.490       .  S
C1267      C1745   1.485       .  S
C1268      C1521   1.477       .  S
C1269      C1481   1.478       .  S
H1270      O1271   0.964       .  S
O1271     Zr1290   2.347   1_455  S
O1271     Zr1292   2.326       .  S
H1272      O1273   0.965       .  S
O1273     Zr3663   2.347       .  S
O1273     Zr3691   2.347       .  S
O1273     Zr1293   2.325       .  S
O1274     Zr1290   2.442       .  S
O1274      C1297   1.295       .  A
O1275     Zr1291   2.454       .  S
O1275      C1298   1.296       .  A
O1276     Zr1292   2.430       .  S
O1276      C1299   1.291       .  A
O1277     Zr1293   2.396       .  S
O1277      C1300   1.284       .  A
O1278     Zr1293   2.405       .  S
O1278      C1301   1.285       .  A
O1279     Zr1292   2.414       .  S
O1279      C1302   1.288       .  A
O1280     Zr1294   2.469       .  S
O1280      C1303   1.298       .  A
O1281     Zr3694   2.491       .  S
O1281      C1304   1.302       .  A
O1282     Zr1292   2.412       .  S
O1282      C1303   1.288       .  A
O1283     Zr1293   2.397       .  S
O1283      C1304   1.284       .  A
O1284     Zr1290   2.468   1_455  S
O1284      C1299   1.297       .  A
O1285     Zr1291   2.486   1_455  S
O1285      C1302   1.301       .  A
O1286     Zr3691   2.469       .  S
O1286      C1301   1.297       .  A
O1287     Zr3690   2.458       .  S
O1287      C1300   1.296       .  A
O1288     Zr1294   2.451       .  S
O1288      C1297   1.296   1_455  A
O1289     Zr1294   2.450       .  S
O1289      C1298   1.296   1_455  A
Zr1290     O3687   2.467       .  S
Zr1290     O3664   2.351       .  S
Zr1290     O1296   2.350   1_655  S
Zr1290     O3708   2.341       .  S
Zr1291     O3686   2.481       .  S
Zr1291     O3673   2.351       .  S
Zr1291     O3695   2.348       .  S
Zr1291     O1306   2.354   1_655  S
Zr1292     O1296   2.330       .  S
Zr1292     O1306   2.336       .  S
Zr1293     O1295   2.328       .  S
Zr1293     O1308   2.329       .  S
Zr1294     O3681   2.463   1_455  S
Zr1294     O3695   2.351   1_455  S
Zr1294     O1296   2.349       .  S
Zr1294     O3708   2.342   1_455  S
Zr1294     O1306   2.349       .  S
O1295     Zr3691   2.345       .  S
O1295     Zr3694   2.350       .  S
C1297      C1761   1.489       .  S
C1298      C1777   1.493       .  S
C1299      C1577   1.489       .  S
C1300      C1593   1.476       .  S
C1301      C1545   1.479       .  S
C1302      C1569   1.497       .  S
C1303      C1529   1.490       .  S
C1304      C1505   1.490       .  S
H1305      O1306   0.964       .  S
H1307      O1308   0.964       .  S
O1308     Zr3690   2.339       .  S
O1308     Zr3694   2.346       .  S
O1309     Zr1345   2.404       .  S
O1309      C1320   1.287       .  A
O1310     Zr1344   2.427       .  S
O1310      C1321   1.291       .  A
O1311     Zr1317   2.438   1_565  S
O1311      C1322   1.293       .  A
O1312      C1323   1.292       .  A
O1313     Zr1347   2.470       .  S
O1313      C1323   1.299       .  A
O1314     Zr1346   2.443       .  S
O1314      C1322   1.294       .  A
O1315     Zr1317   2.478       .  S
O1315      C1321   1.300       .  A
O1316     Zr1317   2.485       .  S
O1316      C1320   1.301       .  A
Zr1317     O1319   2.346   1_545  S
Zr1317     O1325   2.354   1_545  S
O1318     Zr1347   2.340       .  S
O1319     Zr1345   2.347   1_565  S
O1319     Zr1346   2.344       .  S
C1322      C1441   1.486       .  S
C1323      C1425   1.484       .  S
H1324      O1325   0.966       .  S
O1325     Zr1344   2.351   1_565  S
O1325     Zr1346   2.348       .  S
H1326      O1327   0.964       .  S
O1327     Zr1347   2.342       .  S
O1328     Zr1344   2.465   1_565  S
O1328      C1351   1.296       .  A
O1329     Zr1345   2.468   1_565  S
O1329      C1352   1.296       .  A
O1330     Zr1346   2.484       .  S
O1330      C1353   1.301       .  A
O1331     Zr1347   2.477       .  S
O1331      C1354   1.299       .  A
O1332     Zr1347   2.457       .  S
O1332      C1355   1.296       .  A
O1333     Zr1346   2.486       .  S
O1333      C1356   1.301       .  A
O1334     Zr1348   2.461       .  S
O1334      C1357   1.297       .  A
O1335      C1358   1.293       .  A
O1336     Zr1346   2.427       .  S
O1336      C1357   1.291       .  A
O1337     Zr1347   2.439       .  S
O1337      C1358   1.294       .  A
O1338     Zr1344   2.416   1_565  S
O1338      C1353   1.289       .  A
O1339     Zr1345   2.412   1_565  S
O1339      C1356   1.288       .  A
O1340      C1355   1.288       .  A
O1341      C1354   1.287       .  A
O1342     Zr1348   2.386       .  S
O1342      C1351   1.283       .  A
O1343     Zr1348   2.411       .  S
O1343      C1352   1.286       .  A
Zr1344     O1350   2.334   1_545  S
Zr1345     O1360   2.323   1_545  S
Zr1346     O1350   2.351       .  S
Zr1346     O1360   2.352       .  S
Zr1347     O1349   2.356       .  S
Zr1347     O1362   2.353       .  S
Zr1348     O1350   2.338       .  S
Zr1348     O1360   2.327       .  S
C1353      C1537   1.495       .  S
C1354      C1513   1.482       .  S
C1355      C1489   1.477       .  S
C1356      C1497   1.492       .  S
C1357      C1449   1.487       .  S
C1358      C1465   1.482       .  S
H1359      O1360   0.965       .  S
H1361      O1362   0.964       .  S
O1363     Zr1399   2.444       .  S
O1363      C1374   1.294       .  A
O1364     Zr1398   2.421       .  S
O1364      C1375   1.290       .  A
O1365     Zr1971   2.416   1_554  S
O1365      C1376   1.289       .  A
O1366     Zr1371   2.412       .  S
O1366      C1377   1.288       .  A
O1367     Zr1401   2.485       .  S
O1367      C1377   1.301       .  A
O1368     Zr1400   2.480       .  S
O1368      C1376   1.300       .  A
O1369     Zr1371   2.445       .  S
O1369      C1375   1.294       .  A
O1370     Zr1371   2.439       .  S
O1370      C1374   1.292       .  A
Zr1371     O1965   2.409       .  S
Zr1371     O1372   2.333       .  S
Zr1371     O1973   2.327       .  S
Zr1371     O1381   2.339       .  S
Zr1371     O1979   2.339       .  S
O1372     Zr1398   2.342       .  S
O1372     Zr1401   2.340       .  S
O1373     Zr1971   2.336   1_554  S
O1373     Zr1999   2.345   1_554  S
O1373     Zr1400   2.348       .  S
C1374      C2265   1.489       .  S
C1375      C2249   1.484       .  S
C1376      C1561   1.495       .  S
C1377      C1585   1.488       .  S
H1378      O1379   0.963       .  S
O1379     Zr1971   2.334   1_554  S
O1379     Zr1998   2.338       .  S
O1379     Zr1400   2.346       .  S
H1380      O1381   0.967       .  S
O1381     Zr1399   2.343       .  S
O1381     Zr1401   2.351       .  S
O1382     Zr1398   2.443       .  S
O1382      C1405   1.293       .  A
O1383     Zr1399   2.436       .  S
O1383      C1406   1.292       .  A
O1384     Zr1400   2.438       .  S
O1384      C1407   1.293       .  A
O1385     Zr1401   2.442       .  S
O1385      C1408   1.294       .  A
O1386     Zr1401   2.418       .  S
O1386      C1409   1.289       .  A
O1387     Zr1400   2.444       .  S
O1387      C1410   1.294       .  A
O1388     Zr2002   2.415       .  S
O1388      C1411   1.288       .  A
O1389     Zr1402   2.406       .  S
O1389      C1412   1.287       .  A
O1390     Zr1400   2.475       .  S
O1390      C1411   1.299       .  A
O1391     Zr1401   2.476       .  S
O1391      C1412   1.299       .  A
O1392     Zr1998   2.449       .  S
O1392      C1407   1.295       .  A
O1393     Zr1999   2.451   1_554  S
O1393      C1410   1.295       .  A
O1394     Zr1399   2.456       .  S
O1394      C1409   1.297       .  A
O1395     Zr1398   2.439       .  S
O1395      C1408   1.293       .  A
O1396     Zr1402   2.449       .  S
O1396      C1405   1.294       .  A
O1397     Zr1402   2.443       .  S
O1397      C1406   1.293       .  A
Zr1398     O1992   2.450       .  S
Zr1398     O1979   2.349       .  S
Zr1398     O2004   2.342       .  S
Zr1398     O1416   2.339       .  S
Zr1399     O1993   2.451       .  S
Zr1399     O1973   2.334       .  S
Zr1399     O1403   2.342       .  S
Zr1399     O2014   2.343       .  S
Zr1400     O1404   2.352       .  S
Zr1400     O1414   2.347       .  S
Zr1401     O1403   2.350       .  S
Zr1401     O1416   2.348       .  S
Zr1402     O1988   2.411       .  S
Zr1402     O1403   2.340       .  S
Zr1402     O2004   2.338       .  S
Zr1402     O1416   2.337       .  S
Zr1402     O2014   2.335       .  S
O1404     Zr1998   2.344       .  S
O1404     Zr2002   2.338       .  S
C1405      C2209   1.490       .  S
C1406      C2225   1.480       .  S
C1407      C1433   1.487       .  S
C1408      C1457   1.486       .  S
C1409      C1473   1.483       .  S
C1410      C1417   1.481       .  S
C1411      C1553   1.483       .  S
C1412      C1601   1.482       .  S
H1413      O1414   0.964       .  S
O1414     Zr1999   2.349   1_554  S
O1414     Zr2002   2.333       .  S
H1415      O1416   0.965       .  S
C1417      C1418   1.405       .  A
C1417      C1422   1.407       .  A
C1418      C1419   1.401       .  A
C1418      H1427   1.084       .  S
C1419      C1420   1.405       .  A
C1419      H1428   1.083       .  S
C1420      C1426   1.410       .  A
C1420      C1421   1.414       .  A
C1421      C1423   1.403       .  A
C1421      C1422   1.407       .  A
C1422      H1429   1.084       .  S
C1423      C1424   1.399       .  A
C1423      H1430   1.084       .  S
C1424      C1425   1.404       .  A
C1424      H1431   1.083       .  S
C1425      C1426   1.410       .  A
C1426      H1432   1.084       .  S
C1433      C1434   1.409       .  A
C1433      C1438   1.409       .  A
C1434      C1435   1.397       .  A
C1434      H1443   1.083       .  S
C1435      C1436   1.401       .  A
C1435      H1444   1.084       .  S
C1436      C1442   1.404       .  A
C1436      C1437   1.413       .  A
C1437      C1439   1.401       .  A
C1437      C1438   1.405       .  A
C1438      H1445   1.084       .  S
C1439      C1440   1.397       .  A
C1439      H1446   1.084       .  S
C1440      C1441   1.408       .  A
C1440      H1447   1.083       .  S
C1441      C1442   1.408       .  A
C1442      H1448   1.084       .  S
C1449      C1450   1.410       .  A
C1449      C1454   1.408       .  A
C1450      C1451   1.396       .  A
C1450      H1459   1.083       .  S
C1451      C1452   1.400       .  A
C1451      H1460   1.084       .  S
C1452      C1458   1.404       .  A
C1452      C1453   1.413       .  A
C1453      C1455   1.401       .  A
C1453      C1454   1.405       .  A
C1454      H1461   1.084       .  S
C1455      C1456   1.397       .  A
C1455      H1462   1.084       .  S
C1456      C1457   1.408       .  A
C1456      H1463   1.083       .  S
C1457      C1458   1.408       .  A
C1458      H1464   1.084       .  S
C1465      C1466   1.408       .  A
C1465      C1470   1.407       .  A
C1466      C1467   1.395       .  A
C1466      H1475   1.083       .  S
C1467      C1468   1.400       .  A
C1467      H1476   1.084       .  S
C1468      C1474   1.402       .  A
C1468      C1469   1.413       .  A
C1469      C1471   1.400       .  A
C1469      C1470   1.402       .  A
C1470      H1477   1.084       .  S
C1471      C1472   1.395       .  A
C1471      H1478   1.084       .  S
C1472      C1473   1.410       .  A
C1472      H1479   1.083       .  S
C1473      C1474   1.405       .  A
C1474      H1480   1.084       .  S
C1481      C1482   1.410       .  A
C1481      C1486   1.402       .  A
C1482      C1483   1.395       .  A
C1482      H1491   1.083       .  S
C1483      C1484   1.399       .  A
C1483      H1492   1.084       .  S
C1484      C1490   1.404       .  A
C1484      C1485   1.416       .  A
C1485      C1487   1.398       .  A
C1485      C1486   1.404       .  A
C1486      H1493   1.084       .  S
C1487      C1488   1.394       .  A
C1487      H1494   1.084       .  S
C1488      C1489   1.408       .  A
C1488      H1495   1.083       .  S
C1489      C1490   1.403       .  A
C1490      H1496   1.084       .  S
C1497      C1498   1.412       .  A
C1497      C1502   1.406       .  A
C1498      C1499   1.395       .  A
C1498      H1507   1.083       .  S
C1499      C1500   1.397       .  A
C1499      H1508   1.084       .  S
C1500      C1506   1.410       .  A
C1500      C1501   1.417       .  A
C1501      C1503   1.398       .  A
C1501      C1502   1.412       .  A
C1502      H1509   1.084       .  S
C1503      C1504   1.397       .  A
C1503      H1510   1.084       .  S
C1504      C1505   1.414       .  A
C1504      H1511   1.083       .  S
C1505      C1506   1.403       .  A
C1506      H1512   1.084       .  S
C1513      C1514   1.409       .  A
C1513      C1518   1.404       .  A
C1514      C1515   1.395       .  A
C1514      H1523   1.083       .  S
C1515      C1516   1.398       .  A
C1515      H1524   1.084       .  S
C1516      C1522   1.407       .  A
C1516      C1517   1.418       .  A
C1517      C1519   1.400       .  A
C1517      C1518   1.409       .  A
C1518      H1525   1.084       .  S
C1519      C1520   1.396       .  A
C1519      H1526   1.084       .  S
C1520      C1521   1.408       .  A
C1520      H1527   1.084       .  S
C1521      C1522   1.402       .  A
C1522      H1528   1.084       .  S
C1529      C1530   1.412       .  A
C1529      C1534   1.405       .  A
C1530      C1531   1.397       .  A
C1530      H1539   1.083       .  S
C1531      C1532   1.399       .  A
C1531      H1540   1.084       .  S
C1532      C1538   1.411       .  A
C1532      C1533   1.416       .  A
C1533      C1535   1.397       .  A
C1533      C1534   1.409       .  A
C1534      H1541   1.084       .  S
C1535      C1536   1.396       .  A
C1535      H1542   1.084       .  S
C1536      C1537   1.413       .  A
C1536      H1543   1.083       .  S
C1537      C1538   1.407       .  A
C1538      H1544   1.084       .  S
C1545      C1546   1.408       .  A
C1545      C1550   1.402       .  A
C1546      C1547   1.397       .  A
C1546      H1555   1.084       .  S
C1547      C1548   1.401       .  A
C1547      H1556   1.084       .  S
C1548      C1554   1.409       .  A
C1548      C1549   1.417       .  A
C1549      C1551   1.399       .  A
C1549      C1550   1.407       .  A
C1550      H1557   1.084       .  S
C1551      C1552   1.396       .  A
C1551      H1558   1.084       .  S
C1552      C1553   1.409       .  A
C1552      H1559   1.083       .  S
C1553      C1554   1.405       .  A
C1554      H1560   1.084       .  S
C1561      C1562   1.413       .  A
C1561      C1566   1.408       .  A
C1562      C1563   1.397       .  A
C1562      H1571   1.083       .  S
C1563      C1564   1.398       .  A
C1563      H1572   1.084       .  S
C1564      C1570   1.412       .  A
C1564      C1565   1.416       .  A
C1565      C1567   1.399       .  A
C1565      C1566   1.412       .  A
C1566      H1573   1.084       .  S
C1567      C1568   1.398       .  A
C1567      H1574   1.084       .  S
C1568      C1569   1.414       .  A
C1568      H1575   1.083       .  S
C1569      C1570   1.407       .  A
C1570      H1576   1.084       .  S
C1577      C1578   1.409       .  A
C1577      C1582   1.406       .  A
C1578      C1579   1.398       .  A
C1578      H1587   1.083       .  S
C1579      C1580   1.400       .  A
C1579      H1588   1.083       .  S
C1580      C1586   1.413       .  A
C1580      C1581   1.417       .  A
C1581      C1583   1.400       .  A
C1581      C1582   1.412       .  A
C1582      H1589   1.084       .  S
C1583      C1584   1.397       .  A
C1583      H1590   1.084       .  S
C1584      C1585   1.410       .  A
C1584      H1591   1.084       .  S
C1585      C1586   1.406       .  A
C1586      H1592   1.084       .  S
C1593      C1594   1.410       .  A
C1593      C1598   1.400       .  A
C1594      C1595   1.395       .  A
C1594      H1603   1.083       .  S
C1595      C1596   1.399       .  A
C1595      H1604   1.084       .  S
C1596      C1602   1.406       .  A
C1596      C1597   1.417       .  A
C1597      C1599   1.396       .  A
C1597      C1598   1.402       .  A
C1598      H1605   1.084       .  S
C1599      C1600   1.392       .  A
C1599      H1606   1.084       .  S
C1600      C1601   1.411       .  A
C1600      H1607   1.083       .  S
C1601      C1602   1.404       .  A
C1602      H1608   1.084       .  S
C1609      C2005   1.492       .  S
C1609      C1610   1.408       .  A
C1609      C2214   1.411       .  A
C1610      C1611   1.398       .  A
C1610      H1619   1.083       .  S
C1611      C1612   1.400       .  A
C1611      H1620   1.084       .  S
C1612      C1618   1.404       .  A
C1612      C2213   1.413       .  A
C1613      C2212   1.413       .  A
C1613      C1615   1.402       .  A
C1613      C1614   1.406       .  A
C1614      C2209   1.411       .  A
C1614      H1621   1.084       .  S
C1615      C1616   1.398       .  A
C1615      H1622   1.084       .  S
C1616      C2217   1.409       .  A
C1616      H1623   1.083       .  S
C1617      C2216   1.409       .  A
C1617      C1618   1.407       .  A
C1618      H1624   1.084       .  S
C1625      C2006   1.479       .  S
C1625      C2226   1.405       .  A
C1625      C1630   1.407   1_556  A
C1626      C2225   1.406       .  A
C1626      C1627   1.396       .  A
C1626      H1635   1.083       .  S
C1627      C1628   1.401       .  A
C1627      H1636   1.084       .  S
C1628      C1634   1.402       .  A
C1628      C1629   1.413       .  A
C1629      C2231   1.403       .  A
C1629      C2230   1.406       .  A
C1630      C2229   1.406       .  A
C1630      H1637   1.084       .  S
C1631      C2229   1.404       .  A
C1631      C1632   1.400       .  A
C1631      H1638   1.084       .  S
C1632      C1633   1.406       .  A
C1632      H1639   1.083       .  S
C1633      C2234   1.406   1_554  A
C1634      C2233   1.406       .  A
C1634      H1640   1.084       .  S
C1641      C1642   1.408       .  A
C1641      C2246   1.411   1_556  A
C1642      C1643   1.399       .  A
C1642      H1651   1.083       .  S
C1643      C1644   1.401       .  A
C1643      H1652   1.084       .  S
C1644      C1650   1.409       .  A
C1644      C2245   1.414   1_556  A
C1645      C2244   1.413       .  A
C1645      C1647   1.401       .  A
C1645      C1646   1.406       .  A
C1646      C2241   1.409       .  A
C1646      H1653   1.084       .  S
C1647      C1648   1.396       .  A
C1647      H1654   1.084       .  S
C1648      C2249   1.409       .  A
C1648      H1655   1.083       .  S
C1649      C1975   1.491       .  S
C1649      C2248   1.409       .  A
C1649      C1650   1.409   1_554  A
C1650      H1656   1.084       .  S
C1657      C2258   1.409   1_554  A
C1657      C1662   1.411       .  A
C1658      C2257   1.407       .  A
C1658      C1659   1.397       .  A
C1658      H1667   1.083       .  S
C1659      C1660   1.401       .  A
C1659      H1668   1.084       .  S
C1660      C1666   1.405       .  A
C1660      C2261   1.413       .  A
C1661      C2260   1.412   1_554  A
C1661      C1663   1.402       .  A
C1661      C1662   1.409       .  A
C1662      H1669   1.084       .  S
C1663      C1664   1.399       .  A
C1663      H1670   1.084       .  S
C1664      C1665   1.408   1_554  A
C1664      H1671   1.083       .  S
C1665      C1974   1.493       .  S
C1665      C2266   1.412       .  A
C1666      C2265   1.408       .  A
C1666      H1672   1.084       .  S
C1673      C1678   1.405       .  A
C1674      C1675   1.396       .  A
C1674      H1683   1.083       .  S
C1675      C1676   1.400       .  A
C1675      H1684   1.084       .  S
C1676      C1682   1.406       .  A
C1677      C1679   1.401       .  A
C1677      C1678   1.408       .  A
C1678      H1685   1.084       .  S
C1679      C1680   1.398       .  A
C1679      H1686   1.084       .  S
C1680      C1681   1.409       .  A
C1680      H1687   1.084       .  S
C1682      H1688   1.084       .  S
C1689      C1690   1.405       .  A
C1690      C1691   1.392       .  A
C1690      H1699   1.084       .  S
C1691      C1692   1.398       .  A
C1691      H1700   1.084       .  S
C1692      C1698   1.402       .  A
C1693      C1695   1.396       .  A
C1693      C1694   1.403       .  A
C1694      H1701   1.085       .  S
C1695      C1696   1.392       .  A
C1695      H1702   1.084       .  S
C1696      H1703   1.083       .  S
C1697      C1698   1.398       .  A
C1698      H1704   1.084       .  S
C1705      C1706   1.411       .  A
C1706      C1707   1.399       .  A
C1706      H1715   1.083       .  S
C1707      C1708   1.401       .  A
C1707      H1716   1.084       .  S
C1708      C1714   1.411       .  A
C1709      C1711   1.401       .  A
C1709      C1710   1.412       .  A
C1710      H1717   1.084       .  S
C1711      C1712   1.399       .  A
C1711      H1718   1.084       .  S
C1712      H1719   1.083       .  S
C1713      C1714   1.409       .  A
C1714      H1720   1.084       .  S
C1721      C1726   1.405       .  A
C1722      C1723   1.397       .  A
C1722      H1731   1.083       .  S
C1723      C1724   1.398       .  A
C1723      H1732   1.084       .  S
C1724      C1730   1.411       .  A
C1725      C1727   1.401       .  A
C1725      C1726   1.413       .  A
C1726      H1733   1.084       .  S
C1727      C1728   1.399       .  A
C1727      H1734   1.084       .  S
C1728      C1729   1.408       .  A
C1728      H1735   1.084       .  S
C1730      H1736   1.084       .  S
C1737      C4138   1.408       .  A
C1737      C1742   1.408       .  A
C1738      C4137   1.407       .  A
C1738      C1739   1.396       .  A
C1738      H1747   1.083       .  S
C1739      C1740   1.401       .  A
C1739      H1748   1.084       .  S
C1740      C1746   1.403       .  A
C1740      C4141   1.412       .  A
C1741      C4140   1.414       .  A
C1741      C1743   1.400       .  A
C1741      C1742   1.404       .  A
C1742      H1749   1.084       .  S
C1743      C1744   1.396       .  A
C1743      H1750   1.084       .  S
C1744      C1745   1.408       .  A
C1744      H1751   1.083       .  S
C1745      C4146   1.408       .  A
C1746      C4145   1.407       .  A
C1746      H1752   1.084       .  S
C1753      C1754   1.410       .  A
C1753      C4158   1.407   1_455  A
C1754      C1755   1.401       .  A
C1754      H1763   1.083       .  S
C1755      C1756   1.403       .  A
C1755      H1764   1.084       .  S
C1756      C1762   1.407       .  A
C1756      C4157   1.412   1_455  A
C1757      C4156   1.412       .  A
C1757      C1759   1.403       .  A
C1757      C1758   1.407       .  A
C1758      C4153   1.410       .  A
C1758      H1765   1.084       .  S
C1759      C1760   1.399       .  A
C1759      H1766   1.084       .  S
C1760      C4161   1.408       .  A
C1760      H1767   1.083       .  S
C1761      C4160   1.408       .  A
C1761      C1762   1.410   1_655  A
C1762      H1768   1.084       .  S
C1769      C4170   1.409       .  A
C1769      C1774   1.410   1_655  A
C1770      C4169   1.409       .  A
C1770      C1771   1.399       .  A
C1770      H1779   1.083       .  S
C1771      C1772   1.401       .  A
C1771      H1780   1.084       .  S
C1772      C1778   1.408       .  A
C1772      C4173   1.413       .  A
C1773      C4172   1.413   1_455  A
C1773      C1775   1.402       .  A
C1773      C1774   1.409       .  A
C1774      H1781   1.084       .  S
C1775      C1776   1.398       .  A
C1775      H1782   1.084       .  S
C1776      C1777   1.408   1_455  A
C1776      H1783   1.083       .  S
C1777      C4178   1.412       .  A
C1778      C4177   1.409       .  A
C1778      H1784   1.084       .  S
C1785      C1786   1.408       .  A
C1785      C4190   1.408       .  A
C1786      C1787   1.399       .  A
C1786      H1795   1.083       .  S
C1787      C1788   1.402       .  A
C1787      H1796   1.084       .  S
C1788      C1794   1.407       .  A
C1788      C4189   1.413       .  A
C1789      C4188   1.413       .  A
C1789      C1791   1.401       .  A
C1789      C1790   1.404       .  A
C1790      C4185   1.409       .  A
C1790      H1797   1.084       .  S
C1791      C1792   1.398       .  A
C1791      H1798   1.084       .  S
C1792      C4193   1.409       .  A
C1792      H1799   1.083       .  S
C1793      C4192   1.409       .  A
C1793      C1794   1.410   1_655  A
C1794      H1800   1.084       .  S
O1801     Zr1837   2.440   1_455  S
O1801      C1812   1.293       .  A
O1802     Zr1836   2.443   1_455  S
O1802      C1813   1.294       .  A
O1803     Zr1809   2.441       .  S
O1803      C1814   1.293       .  A
O1804     Zr4209   2.439       .  S
O1804      C1815   1.293       .  A
O1805     Zr1839   2.446       .  S
O1805      C1815   1.294       .  A
O1806     Zr1838   2.449       .  S
O1806      C1814   1.295       .  A
O1807      C1813   1.293       .  A
O1808     Zr1809   2.441       .  S
O1808      C1812   1.293       .  A
Zr1809     O4204   2.430   1_455  S
Zr1809     O3610   2.347   1_455  S
Zr1809     O1811   2.343       .  S
Zr1809     O4219   2.341   1_455  S
O1810     Zr3609   2.345   1_556  S
O1810     Zr4236   2.333       .  S
O1811     Zr1837   2.355   1_455  S
O1811     Zr1838   2.354       .  S
C1812      C2385   1.487       .  S
C1813      C2337   1.488       .  S
C1814      C2257   1.489       .  S
C1815      C2233   1.483       .  S
H1816      O1817   0.964       .  S
O1817     Zr1836   2.337   1_455  S
H1818      O1819   0.966       .  S
O1819     Zr4209   2.347       .  S
O1819     Zr4237   2.350       .  S
O1819     Zr1839   2.356       .  S
O1820      C1843   1.294   1_455  A
O1821      C1844   1.294       .  A
O1822      C1845   1.297       .  A
O1823      C1846   1.290       .  A
O1824     Zr1839   2.409       .  S
O1824      C1847   1.287       .  A
O1825     Zr1838   2.428       .  S
O1825      C1848   1.292       .  A
O1826     Zr1840   2.445   1_455  S
O1826      C1849   1.294       .  A
O1827     Zr4240   2.446       .  S
O1827      C1850   1.294       .  A
O1828      C1849   1.295       .  A
O1829      C1850   1.292       .  A
O1830     Zr1836   2.403   1_455  S
O1830      C1845   1.286       .  A
O1831     Zr1837   2.486   1_455  S
O1831      C1848   1.302       .  A
O1832     Zr4237   2.497       .  S
O1832      C1847   1.304       .  A
O1833     Zr4236   2.437       .  S
O1833      C1846   1.292       .  A
O1834      C1843   1.296       .  A
O1835     Zr1840   2.454       .  S
O1835      C1844   1.296       .  A
Zr1836     O4233   2.426       .  S
Zr1836     O4210   2.330       .  S
Zr1836     O3054   2.341       .  S
Zr1837     O4232   2.498       .  S
Zr1837     O4219   2.348       .  S
Zr1837     O3041   2.343       .  S
Zr1840     O4227   2.442       .  S
Zr1840     O4241   2.342       .  S
Zr1840     O3654   2.348       .  S
Zr1840     O1852   2.340   1_655  S
O1841     Zr3037   2.345       .  S
O1841     Zr4240   2.340       .  S
C1843      C2353   1.488   1_655  S
C1844      C2369   1.492       .  S
C1845      C2297   1.482       .  S
C1846      C2281   1.480       .  S
C1847      C2321   1.487       .  S
C1848      C2313   1.496       .  S
C1849      C2241   1.491       .  S
C1850      C2217   1.485       .  S
H1851      O1852   0.964       .  S
H1853      O1854   0.965       .  S
O1854     Zr3036   2.335   1_565  S
O1854     Zr3640   2.347       .  S
O1855     Zr1891   2.438       .  S
O1855      C1866   1.294       .  A
O1856     Zr1890   2.446       .  S
O1856      C1867   1.295   1_455  A
O1857     Zr1863   2.460   1_455  S
O1857      C1868   1.295       .  A
O1858     Zr4263   2.469       .  S
O1858      C1869   1.297       .  A
O1859     Zr1893   2.424       .  S
O1859      C1869   1.289       .  A
O1860     Zr1892   2.427       .  S
O1860      C1868   1.291       .  A
O1861     Zr1863   2.443       .  S
O1861      C1867   1.295       .  A
O1862     Zr1863   2.455       .  S
O1862      C1866   1.297       .  A
Zr1863     O4258   2.472       .  S
Zr1863     O4264   2.342       .  S
Zr1863     O1865   2.350   1_655  S
Zr1863     O4273   2.342       .  S
Zr1863     O1871   2.350   1_655  S
O1864     Zr4263   2.342       .  S
O1864     Zr4290   2.348       .  S
O1864     Zr1893   2.328       .  S
O1865     Zr1891   2.356   1_455  S
O1865     Zr1892   2.332       .  S
C1866      C2393   1.488       .  S
C1867      C2345   1.487   1_655  S
C1868      C2121   1.485       .  S
C1869      C2081   1.488       .  S
H1870      O1871   0.964       .  S
O1871     Zr1890   2.352       .  S
O1871     Zr1892   2.324       .  S
H1872      O1873   0.966       .  S
O1873     Zr4263   2.352       .  S
O1873     Zr4291   2.350       .  S
O1873     Zr1893   2.323       .  S
O1874     Zr1890   2.456       .  S
O1874      C1897   1.297       .  A
O1875     Zr1891   2.470       .  S
O1875      C1898   1.299   1_655  A
O1876     Zr1892   2.441       .  S
O1876      C1899   1.293       .  A
O1877     Zr1893   2.383       .  S
O1877      C1900   1.282       .  A
O1878     Zr1893   2.401       .  S
O1878      C1901   1.285       .  A
O1879     Zr1892   2.428       .  S
O1879      C1902   1.291       .  A
O1880     Zr1894   2.471       .  S
O1880      C1903   1.299       .  A
O1881     Zr4294   2.474       .  S
O1881      C1904   1.299       .  A
O1882     Zr1892   2.410       .  S
O1882      C1903   1.287       .  A
O1883     Zr1893   2.411       .  S
O1883      C1904   1.287       .  A
O1884     Zr1890   2.468       .  S
O1884      C1899   1.298       .  A
O1885     Zr1891   2.472   1_455  S
O1885      C1902   1.298       .  A
O1886     Zr4291   2.465       .  S
O1886      C1901   1.296       .  A
O1887     Zr4290   2.461       .  S
O1887      C1900   1.297       .  A
O1888     Zr1894   2.448       .  S
O1888      C1897   1.294       .  A
O1889     Zr1894   2.435       .  S
O1889      C1898   1.293       .  A
Zr1890     O4287   2.461   1_455  S
Zr1890     O4264   2.350   1_455  S
Zr1890     O1896   2.344       .  S
Zr1890     O4308   2.346   1_455  S
Zr1891     O4286   2.485       .  S
Zr1891     O4273   2.353       .  S
Zr1891     O4295   2.337       .  S
Zr1891     O1906   2.354   1_655  S
Zr1892     O1896   2.340       .  S
Zr1892     O1906   2.344       .  S
Zr1893     O1895   2.330       .  S
Zr1893     O1908   2.330       .  S
Zr1894     O4281   2.482   1_455  S
Zr1894     O4295   2.348   1_455  S
Zr1894     O1896   2.350       .  S
Zr1894     O4308   2.345   1_455  S
Zr1894     O1906   2.351       .  S
O1895     Zr4291   2.342       .  S
O1895     Zr4294   2.354       .  S
C1897      C2361   1.486   1_455  S
C1898      C2377   1.494   1_455  S
C1899      C2177   1.491       .  S
C1900      C2193   1.474       .  S
C1901      C2145   1.478       .  S
C1902      C2169   1.488       .  S
C1903      C2129   1.487       .  S
C1904      C2105   1.483       .  S
H1905      O1906   0.964       .  S
H1907      O1908   0.963       .  S
O1908     Zr4290   2.338       .  S
O1908     Zr4294   2.344       .  S
O1909     Zr1945   2.419       .  S
O1909      C1920   1.290       .  A
O1910     Zr1944   2.420   1_545  S
O1910      C1921   1.290       .  A
O1911     Zr1917   2.435   1_565  S
O1911      C1922   1.292       .  A
O1912      C1923   1.295       .  A
O1913     Zr1947   2.460       .  S
O1913      C1923   1.298       .  A
O1914     Zr1946   2.454       .  S
O1914      C1922   1.296       .  A
O1915     Zr1917   2.473       .  S
O1915      C1921   1.298       .  A
O1916     Zr1917   2.480       .  S
O1916      C1920   1.300       .  A
Zr1917     O1919   2.347   1_545  S
Zr1917     O1925   2.354   1_545  S
O1918     Zr1947   2.340       .  S
O1919     Zr1945   2.346   1_565  S
O1919     Zr1946   2.345       .  S
C1922      C2041   1.490       .  S
C1923      C2025   1.494       .  S
H1924      O1925   0.966       .  S
O1925     Zr1944   2.342       .  S
O1925     Zr1946   2.341       .  S
H1926      O1927   0.965       .  S
O1927     Zr1947   2.349       .  S
O1928     Zr1944   2.466       .  S
O1928      C1951   1.296       .  A
O1929     Zr1945   2.477   1_565  S
O1929      C1952   1.298       .  A
O1930     Zr1946   2.473       .  S
O1930      C1953   1.299       .  A
O1931     Zr1947   2.487       .  S
O1931      C1954   1.302       .  A
O1932     Zr1947   2.465       .  S
O1932      C1955   1.298       .  A
O1933     Zr1946   2.462       .  S
O1933      C1956   1.297       .  A
O1934     Zr1948   2.444       .  S
O1934      C1957   1.294       .  A
O1935      C1958   1.297       .  A
O1936     Zr1946   2.435       .  S
O1936      C1957   1.293       .  A
O1937     Zr1947   2.441       .  S
O1937      C1958   1.294       .  A
O1938     Zr1944   2.402       .  S
O1938      C1953   1.286       .  A
O1939     Zr1945   2.421   1_565  S
O1939      C1956   1.290       .  A
O1940      C1955   1.290       .  A
O1941      C1954   1.286       .  A
O1942     Zr1948   2.386       .  S
O1942      C1951   1.282       .  A
O1943     Zr1948   2.404       .  S
O1943      C1952   1.285       .  A
Zr1944     O1950   2.328       .  S
Zr1945     O1960   2.322   1_545  S
Zr1946     O1950   2.349       .  S
Zr1946     O1960   2.351       .  S
Zr1947     O1949   2.354       .  S
Zr1947     O1962   2.344       .  S
Zr1948     O1950   2.338       .  S
Zr1948     O1960   2.331       .  S
C1953      C2137   1.487       .  S
C1954      C2113   1.487       .  S
C1955      C2089   1.484       .  S
C1956      C2097   1.481       .  S
C1957      C2049   1.483       .  S
C1958      C2065   1.487       .  S
H1959      O1960   0.965       .  S
H1961      O1962   0.964       .  S
O1963     Zr1999   2.440       .  S
O1963      C1974   1.293       .  A
O1964     Zr1998   2.436       .  S
O1964      C1975   1.292       .  A
O1965      C1976   1.287       .  A
O1966     Zr1971   2.412       .  S
O1966      C1977   1.288       .  A
O1967     Zr2001   2.480       .  S
O1967      C1977   1.300       .  A
O1968     Zr2000   2.480       .  S
O1968      C1976   1.300       .  A
O1969     Zr1971   2.452       .  S
O1969      C1975   1.295   1_556  A
O1970     Zr1971   2.452       .  S
O1970      C1974   1.295       .  A
Zr1971     O1972   2.334       .  S
Zr1971     O1981   2.341       .  S
O1972     Zr1998   2.343   1_556  S
O1972     Zr2001   2.345       .  S
O1973     Zr2000   2.337       .  S
C1976      C2161   1.486       .  S
C1977      C2185   1.486       .  S
H1978      O1979   0.963       .  S
O1979     Zr2000   2.349       .  S
H1980      O1981   0.967       .  S
O1981     Zr1999   2.341       .  S
O1981     Zr2001   2.346       .  S
O1982     Zr1998   2.443       .  S
O1982      C2005   1.293       .  A
O1983     Zr1999   2.442       .  S
O1983      C2006   1.293       .  A
O1984     Zr2000   2.442       .  S
O1984      C2007   1.294       .  A
O1985     Zr2001   2.436       .  S
O1985      C2008   1.294       .  A
O1986     Zr2001   2.441       .  S
O1986      C2009   1.294       .  A
O1987     Zr2000   2.451       .  S
O1987      C2010   1.296       .  A
O1988      C2011   1.288       .  A
O1989     Zr2002   2.402   1_556  S
O1989      C2012   1.286       .  A
O1990     Zr2000   2.466       .  S
O1990      C2011   1.298       .  A
O1991     Zr2001   2.469       .  S
O1991      C2012   1.298       .  A
O1992      C2007   1.295       .  A
O1993      C2010   1.296       .  A
O1994     Zr1999   2.462       .  S
O1994      C2009   1.297       .  A
O1995     Zr1998   2.434   1_556  S
O1995      C2008   1.292       .  A
O1996     Zr2002   2.453       .  S
O1996      C2005   1.295       .  A
O1997     Zr2002   2.442   1_556  S
O1997      C2006   1.293       .  A
Zr1998     O2016   2.341   1_554  S
Zr1999     O2003   2.341       .  S
Zr2000     O2004   2.352       .  S
Zr2000     O2014   2.347       .  S
Zr2001     O2003   2.346       .  S
Zr2001     O2016   2.353       .  S
Zr2002     O2003   2.346   1_554  S
Zr2002     O2016   2.336   1_554  S
C2007      C2033   1.490       .  S
C2008      C2057   1.481       .  S
C2009      C2073   1.492       .  S
C2010      C2017   1.492       .  S
C2011      C2153   1.479       .  S
C2012      C2201   1.479       .  S
H2013      O2014   0.964       .  S
H2015      O2016   0.965       .  S
C2017      C2018   1.409       .  A
C2017      C2022   1.408       .  A
C2018      C2019   1.402       .  A
C2018      H2027   1.083       .  S
C2019      C2020   1.404       .  A
C2019      H2028   1.083       .  S
C2020      C2026   1.414       .  A
C2020      C2021   1.414       .  A
C2021      C2023   1.401       .  A
C2021      C2022   1.409       .  A
C2022      H2029   1.084       .  S
C2023      C2024   1.398       .  A
C2023      H2030   1.083       .  S
C2024      C2025   1.407       .  A
C2024      H2031   1.083       .  S
C2025      C2026   1.413       .  A
C2026      H2032   1.084       .  S
C2033      C2034   1.408       .  A
C2033      C2038   1.411       .  A
C2034      C2035   1.395       .  A
C2034      H2043   1.083       .  S
C2035      C2036   1.399       .  A
C2035      H2044   1.084       .  S
C2036      C2042   1.406       .  A
C2036      C2037   1.414       .  A
C2037      C2039   1.402       .  A
C2037      C2038   1.410       .  A
C2038      H2045   1.084       .  S
C2039      C2040   1.399       .  A
C2039      H2046   1.084       .  S
C2040      C2041   1.410       .  A
C2040      H2047   1.083       .  S
C2041      C2042   1.407       .  A
C2042      H2048   1.084       .  S
C2049      C2050   1.407       .  A
C2049      C2054   1.409       .  A
C2050      C2051   1.393       .  A
C2050      H2059   1.083       .  S
C2051      C2052   1.398       .  A
C2051      H2060   1.084       .  S
C2052      C2058   1.400       .  A
C2052      C2053   1.413       .  A
C2053      C2055   1.402       .  A
C2053      C2054   1.405       .  A
C2054      H2061   1.084       .  S
C2055      C2056   1.398       .  A
C2055      H2062   1.084       .  S
C2056      C2057   1.408       .  A
C2056      H2063   1.083       .  S
C2057      C2058   1.405       .  A
C2058      H2064   1.084       .  S
C2065      C2066   1.407       .  A
C2065      C2070   1.409       .  A
C2066      C2067   1.400       .  A
C2066      H2075   1.083       .  S
C2067      C2068   1.403       .  A
C2067      H2076   1.084       .  S
C2068      C2074   1.407       .  A
C2068      C2069   1.413       .  A
C2069      C2071   1.402       .  A
C2069      C2070   1.406       .  A
C2070      H2077   1.084       .  S
C2071      C2072   1.400       .  A
C2071      H2078   1.084       .  S
C2072      C2073   1.409       .  A
C2072      H2079   1.083       .  S
C2073      C2074   1.410       .  A
C2074      H2080   1.084       .  S
C2081      C2082   1.409       .  A
C2081      C2086   1.408       .  A
C2082      C2083   1.397       .  A
C2082      H2091   1.083       .  S
C2083      C2084   1.399       .  A
C2083      H2092   1.084       .  S
C2084      C2090   1.407       .  A
C2084      C2085   1.416       .  A
C2085      C2087   1.402       .  A
C2085      C2086   1.411       .  A
C2086      H2093   1.084       .  S
C2087      C2088   1.399       .  A
C2087      H2094   1.084       .  S
C2088      C2089   1.409       .  A
C2088      H2095   1.084       .  S
C2089      C2090   1.404       .  A
C2090      H2096   1.084       .  S
C2097      C2098   1.408       .  A
C2097      C2102   1.404       .  A
C2098      C2099   1.396       .  A
C2098      H2107   1.083       .  S
C2099      C2100   1.399       .  A
C2099      H2108   1.084       .  S
C2100      C2106   1.408       .  A
C2100      C2101   1.417       .  A
C2101      C2103   1.399       .  A
C2101      C2102   1.408       .  A
C2102      H2109   1.084       .  S
C2103      C2104   1.395       .  A
C2103      H2110   1.084       .  S
C2104      C2105   1.410       .  A
C2104      H2111   1.084       .  S
C2105      C2106   1.403       .  A
C2106      H2112   1.084       .  S
C2113      C2114   1.412       .  A
C2113      C2118   1.402       .  A
C2114      C2115   1.401       .  A
C2114      H2123   1.084       .  S
C2115      C2116   1.402       .  A
C2115      H2124   1.084       .  S
C2116      C2122   1.414       .  A
C2116      C2117   1.417       .  A
C2117      C2119   1.397       .  A
C2117      C2118   1.408       .  A
C2118      H2125   1.084       .  S
C2119      C2120   1.393       .  A
C2119      H2126   1.083       .  S
C2120      C2121   1.407       .  A
C2120      H2127   1.083       .  S
C2121      C2122   1.409       .  A
C2122      H2128   1.084       .  S
C2129      C2130   1.412       .  A
C2129      C2134   1.403       .  A
C2130      C2131   1.398       .  A
C2130      H2139   1.083       .  S
C2131      C2132   1.400       .  A
C2131      H2140   1.084       .  S
C2132      C2138   1.409       .  A
C2132      C2133   1.416       .  A
C2133      C2135   1.396       .  A
C2133      C2134   1.404       .  A
C2134      H2141   1.084       .  S
C2135      C2136   1.392       .  A
C2135      H2142   1.084       .  S
C2136      C2137   1.412       .  A
C2136      H2143   1.083       .  S
C2137      C2138   1.406       .  A
C2138      H2144   1.084       .  S
C2145      C2146   1.409       .  A
C2145      C2150   1.403       .  A
C2146      C2147   1.394       .  A
C2146      H2155   1.083       .  S
C2147      C2148   1.398       .  A
C2147      H2156   1.084       .  S
C2148      C2154   1.405       .  A
C2148      C2149   1.417       .  A
C2149      C2151   1.399       .  A
C2149      C2150   1.406       .  A
C2150      H2157   1.084       .  S
C2151      C2152   1.395       .  A
C2151      H2158   1.084       .  S
C2152      C2153   1.409       .  A
C2152      H2159   1.083       .  S
C2153      C2154   1.402       .  A
C2154      H2160   1.084       .  S
C2161      C2162   1.411       .  A
C2161      C2166   1.402       .  A
C2162      C2163   1.400       .  A
C2162      H2171   1.083       .  S
C2163      C2164   1.401       .  A
C2163      H2172   1.084       .  S
C2164      C2170   1.414       .  A
C2164      C2165   1.417       .  A
C2165      C2167   1.397       .  A
C2165      C2166   1.408       .  A
C2166      H2173   1.084       .  S
C2167      C2168   1.394       .  A
C2167      H2174   1.084       .  S
C2168      C2169   1.409       .  A
C2168      H2175   1.083       .  S
C2169      C2170   1.408       .  A
C2170      H2176   1.084       .  S
C2177      C2178   1.409       .  A
C2177      C2182   1.407       .  A
C2178      C2179   1.400       .  A
C2178      H2187   1.083       .  S
C2179      C2180   1.401       .  A
C2179      H2188   1.084       .  S
C2180      C2186   1.412       .  A
C2180      C2181   1.416       .  A
C2181      C2183   1.400       .  A
C2181      C2182   1.411       .  A
C2182      H2189   1.084       .  S
C2183      C2184   1.397       .  A
C2183      H2190   1.084       .  S
C2184      C2185   1.409       .  A
C2184      H2191   1.084       .  S
C2185      C2186   1.406       .  A
C2186      H2192   1.084       .  S
C2193      C2194   1.411       .  A
C2193      C2198   1.400       .  A
C2194      C2195   1.392       .  A
C2194      H2203   1.083       .  S
C2195      C2196   1.397       .  A
C2195      H2204   1.084       .  S
C2196      C2202   1.401       .  A
C2196      C2197   1.415       .  A
C2197      C2199   1.397       .  A
C2197      C2198   1.399       .  A
C2198      H2205   1.084       .  S
C2199      C2200   1.393       .  A
C2199      H2206   1.084       .  S
C2200      C2201   1.411       .  A
C2200      H2207   1.083       .  S
C2201      C2202   1.402       .  A
C2202      H2208   1.084       .  S
C2209      C2210   1.408       .  A
C2210      C2211   1.398       .  A
C2210      H2219   1.083       .  S
C2211      C2212   1.401       .  A
C2211      H2220   1.084       .  S
C2212      C2218   1.404       .  A
C2213      C2215   1.402       .  A
C2213      C2214   1.407       .  A
C2214      H2221   1.084       .  S
C2215      C2216   1.398       .  A
C2215      H2222   1.084       .  S
C2216      H2223   1.083   1_554  S
C2217      C2218   1.407       .  A
C2218      H2224   1.084       .  S
C2225      C2230   1.408       .  A
C2226      C2227   1.398       .  A
C2226      H2235   1.083       .  S
C2227      C2228   1.403       .  A
C2227      H2236   1.084       .  S
C2228      C2234   1.405       .  A
C2228      C2229   1.414   1_556  A
C2230      H2237   1.084       .  S
C2231      C2232   1.400       .  A
C2231      H2238   1.084       .  S
C2232      C2233   1.407       .  A
C2232      H2239   1.083       .  S
C2234      H2240   1.084       .  S
C2241      C2242   1.409       .  A
C2242      C2243   1.398       .  A
C2242      H2251   1.083       .  S
C2243      C2244   1.400       .  A
C2243      H2252   1.084       .  S
C2244      C2250   1.405       .  A
C2245      C2247   1.402       .  A
C2245      C2246   1.410       .  A
C2246      H2253   1.084       .  S
C2247      C2248   1.399       .  A
C2247      H2254   1.084       .  S
C2248      H2255   1.083       .  S
C2249      C2250   1.407       .  A
C2250      H2256   1.084       .  S
C2257      C2262   1.411       .  A
C2258      C2259   1.400       .  A
C2258      H2267   1.083       .  S
C2259      C2260   1.403       .  A
C2259      H2268   1.084       .  S
C2260      C2266   1.409       .  A
C2261      C2263   1.403       .  A
C2261      C2262   1.408       .  A
C2262      H2269   1.084       .  S
C2263      C2264   1.399       .  A
C2263      H2270   1.084       .  S
C2264      C2265   1.409       .  A
C2264      H2271   1.083       .  S
C2266      H2272   1.084       .  S
C2273      C2278   1.407       .  A
C2274      C2275   1.398       .  A
C2274      H2283   1.084       .  S
C2275      C2276   1.401       .  A
C2275      H2284   1.084       .  S
C2276      C2282   1.408       .  A
C2277      C2279   1.402       .  A
C2277      C2278   1.401       .  A
C2278      H2285   1.084       .  S
C2279      C2280   1.396       .  A
C2279      H2286   1.084       .  S
C2280      C2281   1.407       .  A
C2280      H2287   1.083       .  S
C2282      H2288   1.084       .  S
C2289      C2290   1.410       .  A
C2290      C2291   1.395       .  A
C2290      H2299   1.083       .  S
C2291      C2292   1.398       .  A
C2291      H2300   1.084       .  S
C2292      C2298   1.404       .  A
C2293      C2295   1.397       .  A
C2293      C2294   1.404       .  A
C2294      H2301   1.084       .  S
C2295      C2296   1.393       .  A
C2295      H2302   1.084       .  S
C2296      H2303   1.083       .  S
C2297      C2298   1.404       .  A
C2298      H2304   1.084       .  S
C2305      C2306   1.410       .  A
C2306      C2307   1.400       .  A
C2306      H2315   1.083       .  S
C2307      C2308   1.401       .  A
C2307      H2316   1.083       .  S
C2308      C2314   1.413       .  A
C2309      C2311   1.402       .  A
C2309      C2310   1.413       .  A
C2310      H2317   1.084       .  S
C2311      C2312   1.401       .  A
C2311      H2318   1.084       .  S
C2312      H2319   1.083       .  S
C2313      C2314   1.409       .  A
C2314      H2320   1.084       .  S
C2321      C2326   1.402       .  A
C2322      C2323   1.398       .  A
C2322      H2331   1.083       .  S
C2323      C2324   1.398       .  A
C2323      H2332   1.084       .  S
C2324      C2330   1.413       .  A
C2325      C2327   1.397       .  A
C2325      C2326   1.409       .  A
C2326      H2333   1.084       .  S
C2327      C2328   1.394       .  A
C2327      H2334   1.083       .  S
C2328      C2329   1.408       .  A
C2328      H2335   1.083       .  S
C2330      H2336   1.084       .  S
C2337      C4738   1.408   1_455  A
C2337      C2342   1.408       .  A
C2338      C4737   1.409       .  A
C2338      C2339   1.399       .  A
C2338      H2347   1.083       .  S
C2339      C2340   1.401       .  A
C2339      H2348   1.084       .  S
C2340      C2346   1.408       .  A
C2340      C4741   1.414       .  A
C2341      C4740   1.413       .  A
C2341      C2343   1.400       .  A
C2341      C2342   1.405       .  A
C2342      H2349   1.084       .  S
C2343      C2344   1.395       .  A
C2343      H2350   1.084       .  S
C2344      C2345   1.408       .  A
C2344      H2351   1.083       .  S
C2345      C4746   1.409   1_455  A
C2346      C4745   1.408       .  A
C2346      H2352   1.084       .  S
C2353      C2354   1.408       .  A
C2353      C4758   1.407   1_455  A
C2354      C2355   1.402       .  A
C2354      H2363   1.083       .  S
C2355      C2356   1.404       .  A
C2355      H2364   1.084       .  S
C2356      C2362   1.411       .  A
C2356      C4757   1.414   1_455  A
C2357      C4756   1.414       .  A
C2357      C2359   1.402       .  A
C2357      C2358   1.407       .  A
C2358      C4753   1.406       .  A
C2358      H2365   1.084       .  S
C2359      C2360   1.399       .  A
C2359      H2366   1.084       .  S
C2360      C4761   1.407       .  A
C2360      H2367   1.083       .  S
C2361      C4760   1.406       .  A
C2361      C2362   1.410   1_655  A
C2362      H2368   1.084       .  S
C2369      C4770   1.408       .  A
C2369      C2374   1.410       .  A
C2370      C4769   1.409       .  A
C2370      C2371   1.401       .  A
C2370      H2379   1.083       .  S
C2371      C2372   1.403       .  A
C2371      H2380   1.084       .  S
C2372      C2378   1.410       .  A
C2372      C4773   1.413       .  A
C2373      C4772   1.413       .  A
C2373      C2375   1.401   1_655  A
C2373      C2374   1.408       .  A
C2374      H2381   1.084   1_655  S
C2375      C2376   1.399       .  A
C2375      H2382   1.084       .  S
C2376      C2377   1.410   1_455  A
C2376      H2383   1.083       .  S
C2377      C4778   1.410       .  A
C2378      C4777   1.411       .  A
C2378      H2384   1.084       .  S
C2385      C2386   1.408       .  A
C2385      C4790   1.409       .  A
C2386      C2387   1.398       .  A
C2386      H2395   1.083       .  S
C2387      C2388   1.401       .  A
C2387      H2396   1.084       .  S
C2388      C2394   1.406   1_455  A
C2388      C4789   1.413   1_455  A
C2389      C4788   1.414       .  A
C2389      C2391   1.400       .  A
C2389      C2390   1.405       .  A
C2390      C4785   1.408       .  A
C2390      H2397   1.084       .  S
C2391      C2392   1.396       .  A
C2391      H2398   1.084       .  S
C2392      C4793   1.409       .  A
C2392      H2399   1.083       .  S
C2393      C4792   1.409       .  A
C2393      C2394   1.408       .  A
C2394      H2400   1.084   1_655  S
O2401     Zr2437   2.439   1_545  S
O2401      C2412   1.293       .  A
O2402     Zr2436   2.449       .  S
O2402      C2413   1.294       .  A
O2403     Zr2409   2.437       .  S
O2403      C2414   1.293   1_554  A
O2404      C2415   1.293       .  A
O2405     Zr2439   2.451   1_554  S
O2405      C2415   1.295       .  A
O2406     Zr2438   2.446   1_545  S
O2406      C2414   1.294       .  A
O2407     Zr3009   2.435       .  S
O2407      C2413   1.292       .  A
O2408     Zr2409   2.452       .  S
O2408      C2412   1.296       .  A
Zr2409     O3007   2.450   1_554  S
Zr2409     O2411   2.351       .  S
Zr2409     O3017   2.341   1_554  S
O2410     Zr3039   2.330       .  S
O2411     Zr2437   2.355   1_545  S
O2411     Zr2438   2.355   1_544  S
C2412      C2985   1.491       .  S
C2413      C2937   1.487       .  S
C2414      C2857   1.481       .  S
C2415      C2833   1.485       .  S
H2416      O2417   0.964       .  S
O2417     Zr3009   2.344       .  S
O2417     Zr2436   2.340       .  S
O2417     Zr3038   2.340   1_545  S
H2418      O2419   0.965       .  S
O2419     Zr2439   2.344   1_554  S
O2420     Zr3636   2.440       .  S
O2420      C2443   1.293       .  A
O2421     Zr3637   2.440       .  S
O2421      C2444   1.293       .  A
O2422     Zr3038   2.476       .  S
O2422      C2445   1.299       .  A
O2423     Zr3039   2.459       .  S
O2423      C2446   1.295       .  A
O2424     Zr2439   2.405   1_554  S
O2424      C2447   1.287       .  A
O2425     Zr2438   2.440   1_554  S
O2425      C2448   1.293       .  A
O2426     Zr2440   2.454       .  S
O2426      C2449   1.295       .  A
O2427      C2450   1.296   1_556  A
O2428     Zr3638   2.448       .  S
O2428      C2449   1.294       .  A
O2429     Zr3639   2.426   1_554  S
O2429      C2450   1.290       .  A
O2430     Zr2436   2.374       .  S
O2430      C2445   1.281   1_545  A
O2431     Zr2437   2.479       .  S
O2431      C2448   1.300       .  A
O2432      C2447   1.302   1_565  A
O2433      C2446   1.285       .  A
O2434     Zr3040   2.430       .  S
O2434      C2443   1.291       .  A
O2435     Zr2440   2.443   1_554  S
O2435      C2444   1.294       .  A
Zr2436     O3620   2.454   1_545  S
Zr2436     O3642   2.335   1_545  S
Zr2437     O3621   2.452       .  S
Zr2437     O3652   2.344       .  S
Zr2438     O3022   2.468       .  S
Zr2438     O3628   2.454       .  S
Zr2438     O3017   2.340   1_565  S
Zr2438     O4242   2.336       .  S
Zr2438     O3652   2.345   1_556  S
Zr2439     O3023   2.453       .  S
Zr2439     O3629   2.436   1_545  S
Zr2439     O3010   2.329       .  S
Zr2439     O3641   2.352   1_546  S
Zr2439     O4254   2.342   1_545  S
Zr2440     O3034   2.448       .  S
Zr2440     O3042   2.332       .  S
Zr2440     O2452   2.341   1_556  S
O2441     Zr3639   2.344   1_554  S
O2442     Zr3636   2.334       .  S
O2442     Zr4238   2.331       .  S
O2442     Zr3040   2.336       .  S
C2443      C2953   1.484       .  S
C2444      C2969   1.487       .  S
C2445      C2897   1.477       .  S
C2446      C2881   1.474       .  S
C2447      C2921   1.491       .  S
C2448      C2913   1.495       .  S
C2449      C2841   1.487       .  S
C2450      C2817   1.486       .  S
H2451      O2452   0.964       .  S
O2452     Zr3637   2.349       .  S
O2452     Zr3638   2.349   1_554  S
H2453      O2454   0.965       .  S
O2454     Zr4239   2.343       .  S
O2455     Zr2491   2.453       .  S
O2455      C2466   1.297       .  A
O2456     Zr2490   2.446       .  S
O2456      C2467   1.295       .  A
O2457     Zr2463   2.476       .  S
O2457      C2468   1.299       .  A
O2458      C2469   1.299       .  A
O2459     Zr2493   2.404       .  S
O2459      C2469   1.285       .  A
O2460     Zr2492   2.420       .  S
O2460      C2468   1.289       .  A
O2461     Zr2463   2.430       .  S
O2461      C2467   1.292       .  A
O2462     Zr2463   2.448       .  S
O2462      C2466   1.295       .  A
Zr2463     O2465   2.342       .  S
Zr2463     O2471   2.346       .  S
O2464     Zr2493   2.332       .  S
O2465     Zr2491   2.346       .  S
O2465     Zr2492   2.330       .  S
C2466      C2993   1.493       .  S
C2467      C2945   1.484       .  S
C2468      C2721   1.492       .  S
C2469      C2681   1.483       .  S
H2470      O2471   0.964       .  S
O2471     Zr2490   2.349       .  S
O2471     Zr2492   2.327       .  S
H2472      O2473   0.965       .  S
O2473     Zr2493   2.327       .  S
O2474     Zr2490   2.436       .  S
O2474      C2497   1.293       .  A
O2475     Zr2491   2.454       .  S
O2475      C2498   1.297       .  A
O2476     Zr2492   2.431       .  S
O2476      C2499   1.291       .  A
O2477     Zr2493   2.395       .  S
O2477      C2500   1.284       .  A
O2478     Zr2493   2.401       .  S
O2478      C2501   1.285       .  A
O2479     Zr2492   2.415       .  S
O2479      C2502   1.288       .  A
O2480     Zr2494   2.470       .  S
O2480      C2503   1.298       .  A
O2481      C2504   1.300       .  A
O2482     Zr2492   2.412       .  S
O2482      C2503   1.287       .  A
O2483     Zr2493   2.402       .  S
O2483      C2504   1.285       .  A
O2484     Zr2490   2.451       .  S
O2484      C2499   1.294       .  A
O2485     Zr2491   2.474       .  S
O2485      C2502   1.300       .  A
O2486      C2501   1.301       .  A
O2487      C2500   1.297       .  A
O2488     Zr2494   2.452       .  S
O2488      C2497   1.296       .  A
O2489     Zr2494   2.437       .  S
O2489      C2498   1.294       .  A
Zr2490     O2496   2.347       .  S
Zr2491     O2506   2.359       .  S
Zr2492     O2496   2.329       .  S
Zr2492     O2506   2.341       .  S
Zr2493     O2495   2.331       .  S
Zr2493     O2508   2.327       .  S
Zr2494     O2496   2.345       .  S
Zr2494     O2506   2.355       .  S
C2497      C2961   1.487       .  S
C2498      C2977   1.488       .  S
C2499      C2777   1.479       .  S
C2500      C2793   1.473       .  S
C2501      C2745   1.489       .  S
C2502      C2769   1.491       .  S
C2503      C2729   1.478       .  S
C2504      C2705   1.485       .  S
H2505      O2506   0.965       .  S
H2507      O2508   0.964       .  S
O2509     Zr2545   2.426       .  S
O2509      C2520   1.291       .  A
O2510     Zr2544   2.443       .  S
O2510      C2521   1.294       .  A
O2511     Zr2517   2.429       .  S
O2511      C2522   1.291       .  A
O2512     Zr3717   2.450       .  S
O2512      C2523   1.295       .  A
O2513     Zr2547   2.466       .  S
O2513      C2523   1.299       .  A
O2514     Zr2546   2.446       .  S
O2514      C2522   1.295       .  A
O2515     Zr2517   2.461       .  S
O2515      C2521   1.296       .  A
O2516     Zr2517   2.470       .  S
O2516      C2520   1.298       .  A
Zr2517     O3712   2.433       .  S
Zr2517     O3718   2.352       .  S
Zr2517     O2519   2.345       .  S
Zr2517     O3727   2.350       .  S
Zr2517     O2525   2.342       .  S
O2518     Zr3717   2.350       .  S
O2518     Zr3744   2.344   1_545  S
O2518     Zr2547   2.344       .  S
O2519     Zr2545   2.347       .  S
O2519     Zr2546   2.342       .  S
C2520      C4129   1.486       .  S
C2521      C4105   1.492       .  S
C2522      C2641   1.485       .  S
C2523      C2625   1.495       .  S
H2524      O2525   0.965       .  S
O2525     Zr2544   2.344       .  S
O2525     Zr2546   2.342       .  S
H2526      O2527   0.965       .  S
O2527     Zr3717   2.356       .  S
O2527     Zr3745   2.350       .  S
O2527     Zr2547   2.348       .  S
O2528     Zr2544   2.469       .  S
O2528      C2551   1.297       .  A
O2529     Zr2545   2.471       .  S
O2529      C2552   1.297       .  A
O2530     Zr2546   2.460       .  S
O2530      C2553   1.296       .  A
O2531     Zr2547   2.476       .  S
O2531      C2554   1.300       .  A
O2532     Zr2547   2.469       .  S
O2532      C2555   1.298       .  A
O2533     Zr2546   2.465       .  S
O2533      C2556   1.298       .  A
O2534     Zr2548   2.444       .  S
O2534      C2557   1.294       .  A
O2535     Zr3748   2.440   1_545  S
O2535      C2558   1.294       .  A
O2536     Zr2546   2.436       .  S
O2536      C2557   1.293       .  A
O2537     Zr2547   2.446       .  S
O2537      C2558   1.295       .  A
O2538     Zr2544   2.417       .  S
O2538      C2553   1.289       .  A
O2539     Zr2545   2.417       .  S
O2539      C2556   1.289       .  A
O2540     Zr3745   2.422       .  S
O2540      C2555   1.290       .  A
O2541     Zr3744   2.430   1_545  S
O2541      C2554   1.291       .  A
O2542     Zr2548   2.399       .  S
O2542      C2551   1.285       .  A
O2543     Zr2548   2.408       .  S
O2543      C2552   1.286       .  A
Zr2544     O3741   2.430       .  S
Zr2544     O3718   2.349       .  S
Zr2544     O2550   2.337       .  S
Zr2544     O3762   2.331       .  S
Zr2545     O3740   2.420       .  S
Zr2545     O3727   2.349       .  S
Zr2545     O3749   2.327       .  S
Zr2545     O2560   2.330       .  S
Zr2546     O2550   2.348       .  S
Zr2546     O2560   2.345       .  S
Zr2547     O2549   2.357       .  S
Zr2547     O2562   2.352       .  S
Zr2548     O3735   2.444       .  S
Zr2548     O3749   2.334       .  S
Zr2548     O2550   2.334       .  S
Zr2548     O3762   2.340       .  S
Zr2548     O2560   2.334       .  S
O2549     Zr3745   2.322       .  S
O2549     Zr3748   2.337   1_545  S
C2551      C4089   1.484       .  S
C2552      C4073   1.482       .  S
C2553      C2737   1.474       .  S
C2554      C2713   1.494       .  S
C2555      C2689   1.486       .  S
C2556      C2697   1.483       .  S
C2557      C2649   1.485       .  S
C2558      C2665   1.487       .  S
H2559      O2560   0.965       .  S
H2561      O2562   0.964       .  S
O2562     Zr3744   2.327   1_545  S
O2562     Zr3748   2.343   1_545  S
O2563     Zr2599   2.436       .  S
O2563      C2574   1.292       .  A
O2564     Zr2598   2.433       .  S
O2564      C2575   1.291       .  A
O2565     Zr3171   2.408   1_554  S
O2565      C2576   1.287       .  A
O2566     Zr2571   2.413       .  S
O2566      C2577   1.287       .  A
O2567     Zr2601   2.482       .  S
O2567      C2577   1.300       .  A
O2568     Zr2600   2.480       .  S
O2568      C2576   1.300       .  A
O2569     Zr2571   2.457       .  S
O2569      C2575   1.295       .  A
O2570     Zr2571   2.456       .  S
O2570      C2574   1.295       .  A
Zr2571     O3165   2.389       .  S
Zr2571     O2572   2.328       .  S
Zr2571     O3173   2.338       .  S
Zr2571     O2581   2.339       .  S
Zr2571     O3179   2.338       .  S
O2572     Zr2598   2.347       .  S
O2572     Zr2601   2.342       .  S
O2573     Zr3171   2.337   1_554  S
O2573     Zr3199   2.337   1_554  S
O2573     Zr2600   2.344       .  S
C2574      C3465   1.488       .  S
C2575      C3449   1.491       .  S
C2576      C2761   1.492       .  S
C2577      C2785   1.484       .  S
H2578      O2579   0.963       .  S
O2579     Zr3171   2.335   1_554  S
O2579     Zr3198   2.342       .  S
O2579     Zr2600   2.353       .  S
H2580      O2581   0.967       .  S
O2581     Zr2599   2.351       .  S
O2581     Zr2601   2.350       .  S
O2582     Zr2598   2.436       .  S
O2582      C2605   1.291       .  A
O2583     Zr2599   2.453       .  S
O2583      C2606   1.295       .  A
O2584     Zr2600   2.435       .  S
O2584      C2607   1.293       .  A
O2585     Zr2601   2.447       .  S
O2585      C2608   1.296       .  A
O2586     Zr2601   2.438       .  S
O2586      C2609   1.293       .  A
O2587     Zr2600   2.454       .  S
O2587      C2610   1.296       .  A
O2588     Zr3202   2.399   1_554  S
O2588      C2611   1.286       .  A
O2589     Zr2602   2.409       .  S
O2589      C2612   1.287       .  A
O2590     Zr2600   2.481       .  S
O2590      C2611   1.300       .  A
O2591     Zr2601   2.467       .  S
O2591      C2612   1.297       .  A
O2592     Zr3198   2.452       .  S
O2592      C2607   1.295       .  A
O2593     Zr3199   2.459   1_554  S
O2593      C2610   1.297       .  A
O2594     Zr2599   2.453       .  S
O2594      C2609   1.296       .  A
O2595     Zr2598   2.426       .  S
O2595      C2608   1.291       .  A
O2596     Zr2602   2.456       .  S
O2596      C2605   1.295       .  A
O2597     Zr2602   2.446       .  S
O2597      C2606   1.293       .  A
Zr2598     O3192   2.461       .  S
Zr2598     O3179   2.333       .  S
Zr2598     O3204   2.341       .  S
Zr2598     O2616   2.344       .  S
Zr2599     O3193   2.448       .  S
Zr2599     O3173   2.340       .  S
Zr2599     O2603   2.340       .  S
Zr2599     O3214   2.338       .  S
Zr2600     O2604   2.352       .  S
Zr2600     O2614   2.344       .  S
Zr2601     O2603   2.348       .  S
Zr2601     O2616   2.352       .  S
Zr2602     O3188   2.397       .  S
Zr2602     O2603   2.337       .  S
Zr2602     O3204   2.341       .  S
Zr2602     O2616   2.331       .  S
Zr2602     O3214   2.340       .  S
O2604     Zr3198   2.344       .  S
O2604     Zr3202   2.338   1_554  S
C2605      C3409   1.489       .  S
C2606      C3425   1.487       .  S
C2607      C2633   1.486       .  S
C2608      C2657   1.482       .  S
C2609      C2673   1.490       .  S
C2610      C2617   1.494       .  S
C2611      C2753   1.489       .  S
C2612      C2801   1.477       .  S
H2613      O2614   0.964       .  S
O2614     Zr3199   2.344   1_554  S
O2614     Zr3202   2.338   1_554  S
H2615      O2616   0.965       .  S
C2617      C2618   1.408       .  A
C2617      C2622   1.410       .  A
C2618      C2619   1.403       .  A
C2618      H2627   1.083       .  S
C2619      C2620   1.405       .  A
C2619      H2628   1.083       .  S
C2620      C2626   1.416       .  A
C2620      C2621   1.414       .  A
C2621      C2623   1.402       .  A
C2621      C2622   1.411       .  A
C2622      H2629   1.084       .  S
C2623      C2624   1.399       .  A
C2623      H2630   1.083       .  S
C2624      C2625   1.406       .  A
C2624      H2631   1.083       .  S
C2625      C2626   1.414       .  A
C2626      H2632   1.084       .  S
C2633      C2634   1.408       .  A
C2633      C2638   1.409       .  A
C2634      C2635   1.395       .  A
C2634      H2643   1.083       .  S
C2635      C2636   1.399       .  A
C2635      H2644   1.084       .  S
C2636      C2642   1.404       .  A
C2636      C2637   1.414       .  A
C2637      C2639   1.401       .  A
C2637      C2638   1.407       .  A
C2638      H2645   1.084       .  S
C2639      C2640   1.398       .  A
C2639      H2646   1.084       .  S
C2640      C2641   1.409       .  A
C2640      H2647   1.083       .  S
C2641      C2642   1.406       .  A
C2642      H2648   1.084       .  S
C2649      C2650   1.408       .  A
C2649      C2654   1.408       .  A
C2650      C2651   1.395       .  A
C2650      H2659   1.083       .  S
C2651      C2652   1.399       .  A
C2651      H2660   1.084       .  S
C2652      C2658   1.403       .  A
C2652      C2653   1.414       .  A
C2653      C2655   1.400       .  A
C2653      C2654   1.405       .  A
C2654      H2661   1.084       .  S
C2655      C2656   1.396       .  A
C2655      H2662   1.084       .  S
C2656      C2657   1.409       .  A
C2656      H2663   1.083       .  S
C2657      C2658   1.405       .  A
C2658      H2664   1.084       .  S
C2665      C2666   1.409       .  A
C2665      C2670   1.407       .  A
C2666      C2667   1.398       .  A
C2666      H2675   1.083       .  S
C2667      C2668   1.402       .  A
C2667      H2676   1.084       .  S
C2668      C2674   1.408       .  A
C2668      C2669   1.413       .  A
C2669      C2671   1.399       .  A
C2669      C2670   1.404       .  A
C2670      H2677   1.084       .  S
C2671      C2672   1.396       .  A
C2671      H2678   1.084       .  S
C2672      C2673   1.409       .  A
C2672      H2679   1.083       .  S
C2673      C2674   1.409       .  A
C2674      H2680   1.084       .  S
C2681      C2682   1.411       .  A
C2681      C2686   1.402       .  A
C2682      C2683   1.398       .  A
C2682      H2691   1.084       .  S
C2683      C2684   1.400       .  A
C2683      H2692   1.084       .  S
C2684      C2690   1.410       .  A
C2684      C2685   1.417       .  A
C2685      C2687   1.398       .  A
C2685      C2686   1.407       .  A
C2686      H2693   1.084       .  S
C2687      C2688   1.395       .  A
C2687      H2694   1.084       .  S
C2688      C2689   1.409       .  A
C2688      H2695   1.083       .  S
C2689      C2690   1.406       .  A
C2690      H2696   1.084       .  S
C2697      C2698   1.409       .  A
C2697      C2702   1.404       .  A
C2698      C2699   1.396       .  A
C2698      H2707   1.083       .  S
C2699      C2700   1.399       .  A
C2699      H2708   1.084       .  S
C2700      C2706   1.407       .  A
C2700      C2701   1.416       .  A
C2701      C2703   1.398       .  A
C2701      C2702   1.406       .  A
C2702      H2709   1.084       .  S
C2703      C2704   1.395       .  A
C2703      H2710   1.084       .  S
C2704      C2705   1.412       .  A
C2704      H2711   1.082       .  S
C2705      C2706   1.403       .  A
C2706      H2712   1.084       .  S
C2713      C2714   1.411       .  A
C2713      C2718   1.407       .  A
C2714      C2715   1.400       .  A
C2714      H2723   1.083       .  S
C2715      C2716   1.401       .  A
C2715      H2724   1.084       .  S
C2716      C2722   1.413       .  A
C2716      C2717   1.416       .  A
C2717      C2719   1.400       .  A
C2717      C2718   1.411       .  A
C2718      H2725   1.084       .  S
C2719      C2720   1.398       .  A
C2719      H2726   1.084       .  S
C2720      C2721   1.411       .  A
C2720      H2727   1.083       .  S
C2721      C2722   1.408       .  A
C2722      H2728   1.084       .  S
C2729      C2730   1.408       .  A
C2729      C2734   1.402       .  A
C2730      C2731   1.397       .  A
C2730      H2739   1.083       .  S
C2731      C2732   1.400       .  A
C2731      H2740   1.084       .  S
C2732      C2738   1.407       .  A
C2732      C2733   1.417       .  A
C2733      C2735   1.399       .  A
C2733      C2734   1.405       .  A
C2734      H2741   1.084       .  S
C2735      C2736   1.394       .  A
C2735      H2742   1.084       .  S
C2736      C2737   1.406       .  A
C2736      H2743   1.084       .  S
C2737      C2738   1.403       .  A
C2738      H2744   1.084       .  S
C2745      C2746   1.414       .  A
C2745      C2750   1.403       .  A
C2746      C2747   1.397       .  A
C2746      H2755   1.083       .  S
C2747      C2748   1.398       .  A
C2747      H2756   1.084       .  S
C2748      C2754   1.410       .  A
C2748      C2749   1.416       .  A
C2749      C2751   1.396       .  A
C2749      C2750   1.407       .  A
C2750      H2757   1.084       .  S
C2751      C2752   1.393       .  A
C2751      H2758   1.084       .  S
C2752      C2753   1.413       .  A
C2752      H2759   1.083       .  S
C2753      C2754   1.405       .  A
C2754      H2760   1.084       .  S
C2761      C2762   1.413       .  A
C2761      C2766   1.406       .  A
C2762      C2763   1.395       .  A
C2762      H2771   1.083       .  S
C2763      C2764   1.397       .  A
C2763      H2772   1.084       .  S
C2764      C2770   1.409       .  A
C2764      C2765   1.416       .  A
C2765      C2767   1.398       .  A
C2765      C2766   1.410       .  A
C2766      H2773   1.084       .  S
C2767      C2768   1.397       .  A
C2767      H2774   1.084       .  S
C2768      C2769   1.413       .  A
C2768      H2775   1.083       .  S
C2769      C2770   1.405       .  A
C2770      H2776   1.084       .  S
C2777      C2778   1.406       .  A
C2777      C2782   1.405       .  A
C2778      C2779   1.396       .  A
C2778      H2787   1.084       .  S
C2779      C2780   1.400       .  A
C2779      H2788   1.083       .  S
C2780      C2786   1.409       .  A
C2780      C2781   1.417       .  A
C2781      C2783   1.400       .  A
C2781      C2782   1.410       .  A
C2782      H2789   1.085       .  S
C2783      C2784   1.398       .  A
C2783      H2790   1.084       .  S
C2784      C2785   1.409       .  A
C2784      H2791   1.084       .  S
C2785      C2786   1.404       .  A
C2786      H2792   1.084       .  S
C2793      C2794   1.409       .  A
C2793      C2798   1.398       .  A
C2794      C2795   1.394       .  A
C2794      H2803   1.082       .  S
C2795      C2796   1.398       .  A
C2795      H2804   1.084       .  S
C2796      C2802   1.406       .  A
C2796      C2797   1.418       .  A
C2797      C2799   1.397       .  A
C2797      C2798   1.404       .  A
C2798      H2805   1.084       .  S
C2799      C2800   1.393       .  A
C2799      H2806   1.084       .  S
C2800      C2801   1.408       .  A
C2800      H2807   1.083       .  S
C2801      C2802   1.403       .  A
C2802      H2808   1.084       .  S
C2809      C3205   1.492       .  S
C2809      C2810   1.408       .  A
C2809      C3414   1.412       .  A
C2810      C2811   1.397       .  A
C2810      H2819   1.083       .  S
C2811      C2812   1.400       .  A
C2811      H2820   1.084       .  S
C2812      C2818   1.404       .  A
C2812      C3413   1.413       .  A
C2813      C3412   1.413       .  A
C2813      C2815   1.403       .  A
C2813      C2814   1.408       .  A
C2814      C3409   1.411       .  A
C2814      H2821   1.084       .  S
C2815      C2816   1.399       .  A
C2815      H2822   1.084       .  S
C2816      C3417   1.408       .  A
C2816      H2823   1.083       .  S
C2817      C3416   1.410       .  A
C2817      C2818   1.406       .  A
C2818      H2824   1.084       .  S
C2825      C3206   1.484       .  S
C2825      C3426   1.406       .  A
C2825      C2830   1.409   1_556  A
C2826      C3425   1.405       .  A
C2826      C2827   1.398       .  A
C2826      H2835   1.083       .  S
C2827      C2828   1.402       .  A
C2827      H2836   1.083       .  S
C2828      C2834   1.407       .  A
C2828      C2829   1.414       .  A
C2829      C3431   1.404       .  A
C2829      C3430   1.410       .  A
C2830      C3429   1.408       .  A
C2830      H2837   1.084       .  S
C2831      C3429   1.404       .  A
C2831      C2832   1.401       .  A
C2831      H2838   1.084       .  S
C2832      C2833   1.408       .  A
C2832      H2839   1.083       .  S
C2833      C3434   1.406   1_554  A
C2834      C3433   1.407       .  A
C2834      H2840   1.084       .  S
C2841      C2842   1.407       .  A
C2841      C3446   1.408   1_556  A
C2842      C2843   1.401       .  A
C2842      H2851   1.083       .  S
C2843      C2844   1.403       .  A
C2843      H2852   1.084       .  S
C2844      C2850   1.409       .  A
C2844      C3445   1.414   1_556  A
C2845      C3444   1.412       .  A
C2845      C2847   1.402       .  A
C2845      C2846   1.407       .  A
C2846      C3441   1.411       .  A
C2846      H2853   1.084       .  S
C2847      C2848   1.399       .  A
C2847      H2854   1.084       .  S
C2848      C3449   1.409       .  A
C2848      H2855   1.083       .  S
C2849      C3175   1.485       .  S
C2849      C3448   1.406       .  A
C2849      C2850   1.409   1_554  A
C2850      H2856   1.084       .  S
C2857      C3458   1.406       .  A
C2857      C2862   1.407   1_556  A
C2858      C3457   1.406       .  A
C2858      C2859   1.397       .  A
C2858      H2867   1.083       .  S
C2859      C2860   1.402       .  A
C2859      H2868   1.084       .  S
C2860      C2866   1.405       .  A
C2860      C3461   1.413       .  A
C2861      C3460   1.414   1_554  A
C2861      C2863   1.402       .  A
C2861      C2862   1.405       .  A
C2862      H2869   1.084       .  S
C2863      C2864   1.398       .  A
C2863      H2870   1.084       .  S
C2864      C2865   1.407       .  A
C2864      H2871   1.083       .  S
C2865      C3174   1.482   1_554  S
C2865      C3466   1.406   1_554  A
C2866      C3465   1.408       .  A
C2866      H2872   1.084       .  S
C2873      C3752   1.480       .  S
C2873      C4074   1.409       .  A
C2873      C2878   1.403   1_565  A
C2874      C4073   1.410       .  A
C2874      C2875   1.396       .  A
C2874      H2883   1.083       .  S
C2875      C2876   1.399       .  A
C2875      H2884   1.084       .  S
C2876      C2882   1.406       .  A
C2876      C4077   1.416       .  A
C2877      C4076   1.416   1_545  A
C2877      C2879   1.400       .  A
C2877      C2878   1.405       .  A
C2878      H2885   1.084       .  S
C2879      C2880   1.395       .  A
C2879      H2886   1.084       .  S
C2880      C2881   1.407       .  A
C2880      H2887   1.084       .  S
C2881      C4082   1.402   1_545  A
C2882      C4081   1.404       .  A
C2882      H2888   1.084       .  S
C2889      C3751   1.474       .  S
C2889      C2890   1.409       .  A
C2889      C4094   1.401       .  A
C2890      C2891   1.391       .  A
C2890      H2899   1.083       .  S
C2891      C2892   1.396       .  A
C2891      H2900   1.084       .  S
C2892      C2898   1.401       .  A
C2892      C4093   1.417       .  A
C2893      C4092   1.417       .  A
C2893      C2895   1.396       .  A
C2893      C2894   1.405       .  A
C2894      C4089   1.403       .  A
C2894      H2901   1.084       .  S
C2895      C2896   1.392       .  A
C2895      H2902   1.084       .  S
C2896      C4097   1.415       .  A
C2896      H2903   1.083       .  S
C2897      C4096   1.413   1_565  A
C2897      C2898   1.400       .  A
C2898      H2904   1.084       .  S
C2905      C3721   1.490       .  S
C2905      C2906   1.409       .  A
C2905      C4110   1.409   1_545  A
C2906      C2907   1.397       .  A
C2906      H2915   1.083       .  S
C2907      C2908   1.400   1_545  A
C2907      H2916   1.084       .  S
C2908      C2914   1.410       .  A
C2908      C4109   1.415       .  A
C2909      C4108   1.414       .  A
C2909      C2911   1.405       .  A
C2909      C2910   1.416       .  A
C2910      C4105   1.413       .  A
C2910      H2917   1.084       .  S
C2911      C2912   1.406       .  A
C2911      H2918   1.084       .  S
C2912      C4113   1.412       .  A
C2912      H2919   1.083       .  S
C2913      C4112   1.411       .  A
C2913      C2914   1.407       .  A
C2914      H2920   1.084   1_565  S
C2921      C4122   1.413       .  A
C2921      C2926   1.404   1_545  A
C2922      C4121   1.410       .  A
C2922      C2923   1.399       .  A
C2922      H2931   1.084       .  S
C2923      C2924   1.401       .  A
C2923      H2932   1.084       .  S
C2924      C2930   1.412       .  A
C2924      C4125   1.417       .  A
C2925      C4124   1.417   1_565  A
C2925      C2927   1.397       .  A
C2925      C2926   1.409       .  A
C2926      H2933   1.084       .  S
C2927      C2928   1.395       .  A
C2927      H2934   1.084       .  S
C2928      C2929   1.411   1_565  A
C2928      H2935   1.083       .  S
C2929      C3720   1.489       .  S
C2929      C4130   1.405       .  A
C2930      C4129   1.407       .  A
C2930      H2936   1.084       .  S
C2937      C2942   1.408       .  A
C2938      C2939   1.396       .  A
C2938      H2947   1.083       .  S
C2939      C2940   1.400   1_655  A
C2939      H2948   1.084       .  S
C2940      C2946   1.404   1_455  A
C2941      C2943   1.400       .  A
C2941      C2942   1.406       .  A
C2942      H2949   1.084       .  S
C2943      C2944   1.396       .  A
C2943      H2950   1.084       .  S
C2944      C2945   1.409       .  A
C2944      H2951   1.083       .  S
C2946      H2952   1.084       .  S
C2953      C2954   1.407       .  A
C2954      C2955   1.397       .  A
C2954      H2963   1.083       .  S
C2955      C2956   1.401       .  A
C2955      H2964   1.084       .  S
C2956      C2962   1.404       .  A
C2957      C2959   1.401       .  A
C2957      C2958   1.404       .  A
C2958      H2965   1.084       .  S
C2959      C2960   1.397       .  A
C2959      H2966   1.084       .  S
C2960      H2967   1.083       .  S
C2961      C2962   1.408       .  A
C2962      H2968   1.084       .  S
C2969      C2974   1.409       .  A
C2970      C2971   1.400       .  A
C2970      H2979   1.083       .  S
C2971      C2972   1.403       .  A
C2971      H2980   1.084       .  S
C2972      C2978   1.406       .  A
C2973      C2975   1.401       .  A
C2973      C2974   1.405       .  A
C2974      H2981   1.084       .  S
C2975      C2976   1.397       .  A
C2975      H2982   1.084       .  S
C2976      C2977   1.409       .  A
C2976      H2983   1.083       .  S
C2978      H2984   1.084       .  S
C2985      C2986   1.409       .  A
C2986      C2987   1.399       .  A
C2986      H2995   1.083       .  S
C2987      C2988   1.402       .  A
C2987      H2996   1.084       .  S
C2988      C2994   1.409       .  A
C2989      C2991   1.401   1_455  A
C2989      C2990   1.404       .  A
C2990      H2997   1.084   1_455  S
C2991      C2992   1.396       .  A
C2991      H2998   1.084       .  S
C2992      H2999   1.083       .  S
C2993      C2994   1.412       .  A
C2994      H3000   1.084       .  S
O3001     Zr3037   2.448   1_545  S
O3001      C3012   1.295       .  A
O3002     Zr3036   2.449       .  S
O3002      C3013   1.294       .  A
O3003     Zr3009   2.447       .  S
O3003      C3014   1.294       .  A
O3004      C3015   1.293       .  A
O3005     Zr3039   2.451       .  S
O3005      C3015   1.295       .  A
O3006     Zr3038   2.451   1_545  S
O3006      C3014   1.296       .  A
O3007      C3013   1.295       .  A
O3008     Zr3009   2.432       .  S
O3008      C3012   1.292       .  A
Zr3009     O3011   2.346       .  S
O3011     Zr3037   2.356   1_545  S
O3011     Zr3038   2.353   1_545  S
C3012      C3585   1.486       .  S
C3013      C3537   1.493       .  S
C3014      C3457   1.488       .  S
C3015      C3433   1.487       .  S
H3016      O3017   0.964       .  S
O3017     Zr3036   2.333       .  S
H3018      O3019   0.966       .  S
O3019     Zr3039   2.353       .  S
O3020     Zr4236   2.447       .  S
O3020      C3043   1.294       .  A
O3021     Zr4237   2.449       .  S
O3021      C3044   1.295       .  A
O3022      C3045   1.298   1_565  A
O3023      C3046   1.294       .  A
O3024     Zr3039   2.415       .  S
O3024      C3047   1.289       .  A
O3025     Zr3038   2.443       .  S
O3025      C3048   1.294       .  A
O3026     Zr3040   2.457       .  S
O3026      C3049   1.296       .  A
O3027      C3050   1.295       .  A
O3028     Zr4238   2.439       .  S
O3028      C3049   1.293       .  A
O3029     Zr4239   2.440       .  S
O3029      C3050   1.293       .  A
O3030     Zr3036   2.385       .  S
O3030      C3045   1.282       .  A
O3031     Zr3037   2.488       .  S
O3031      C3048   1.302       .  A
O3032      C3047   1.305       .  A
O3033      C3046   1.286       .  A
O3034      C3043   1.294       .  A
O3035     Zr3040   2.440       .  S
O3035      C3044   1.293       .  A
Zr3036     O4220   2.439   1_545  S
Zr3036     O4242   2.343   1_545  S
Zr3037     O4221   2.455       .  S
Zr3037     O4252   2.354       .  S
Zr3038     O4228   2.439       .  S
Zr3038     O3642   2.332       .  S
Zr3038     O4252   2.355       .  S
Zr3039     O4229   2.442   1_545  S
Zr3039     O4241   2.350   1_545  S
Zr3039     O3654   2.338   1_545  S
Zr3040     O3052   2.331       .  S
O3041     Zr4239   2.350       .  S
O3042     Zr4236   2.341       .  S
O3042     Zr3638   2.333       .  S
C3043      C3553   1.487       .  S
C3044      C3569   1.486       .  S
C3045      C3497   1.474       .  S
C3046      C3481   1.477       .  S
C3047      C3521   1.499       .  S
C3048      C3513   1.497       .  S
C3049      C3441   1.492       .  S
C3050      C3417   1.486       .  S
H3051      O3052   0.964       .  S
O3052     Zr4237   2.346       .  S
O3052     Zr4238   2.354       .  S
H3053      O3054   0.965       .  S
O3054     Zr3639   2.341       .  S
O3055     Zr3091   2.430       .  S
O3055      C3066   1.292       .  A
O3056     Zr3090   2.451       .  S
O3056      C3067   1.296       .  A
O3057     Zr3063   2.474       .  S
O3057      C3068   1.298       .  A
O3058      C3069   1.299       .  A
O3059     Zr3093   2.414       .  S
O3059      C3069   1.287       .  A
O3060     Zr3092   2.395       .  S
O3060      C3068   1.284       .  A
O3061     Zr3063   2.437       .  S
O3061      C3067   1.294       .  A
O3062     Zr3063   2.456       .  S
O3062      C3066   1.297       .  A
Zr3063     O3065   2.347       .  S
Zr3063     O3071   2.349       .  S
O3064     Zr3093   2.325       .  S
O3065     Zr3091   2.348       .  S
O3065     Zr3092   2.328       .  S
C3066      C3593   1.486       .  S
C3067      C3545   1.488       .  S
C3068      C3321   1.487       .  S
C3069      C3281   1.492       .  S
H3070      O3071   0.964       .  S
O3071     Zr3090   2.340       .  S
O3071     Zr3092   2.320       .  S
H3072      O3073   0.965       .  S
O3073     Zr3093   2.325       .  S
O3074     Zr3090   2.450       .  S
O3074      C3097   1.296       .  A
O3075     Zr3091   2.454       .  S
O3075      C3098   1.296       .  A
O3076     Zr3092   2.428       .  S
O3076      C3099   1.290       .  A
O3077     Zr3093   2.386       .  S
O3077      C3100   1.282       .  A
O3078     Zr3093   2.388       .  S
O3078      C3101   1.283       .  A
O3079     Zr3092   2.412       .  S
O3079      C3102   1.287       .  A
O3080     Zr3094   2.473       .  S
O3080      C3103   1.299       .  A
O3081      C3104   1.299       .  A
O3082     Zr3092   2.399       .  S
O3082      C3103   1.285       .  A
O3083     Zr3093   2.410       .  S
O3083      C3104   1.286       .  A
O3084     Zr3090   2.470       .  S
O3084      C3099   1.297       .  A
O3085     Zr3091   2.470       .  S
O3085      C3102   1.298       .  A
O3086      C3101   1.301       .  A
O3087      C3100   1.298       .  A
O3088     Zr3094   2.451       .  S
O3088      C3097   1.296       .  A
O3089     Zr3094   2.444       .  S
O3089      C3098   1.295       .  A
Zr3090     O3096   2.345       .  S
Zr3091     O3106   2.349       .  S
Zr3092     O3096   2.330       .  S
Zr3092     O3106   2.335       .  S
Zr3093     O3095   2.329       .  S
Zr3093     O3108   2.325       .  S
Zr3094     O3096   2.350       .  S
Zr3094     O3106   2.350       .  S
C3097      C3561   1.487       .  S
C3098      C3577   1.487       .  S
C3099      C3377   1.488       .  S
C3100      C3393   1.479       .  S
C3101      C3345   1.487       .  S
C3102      C3369   1.488       .  S
C3103      C3329   1.483       .  S
C3104      C3305   1.484       .  S
H3105      O3106   0.965       .  S
H3107      O3108   0.963       .  S
O3109     Zr3145   2.430       .  S
O3109      C3120   1.292       .  A
O3110     Zr3144   2.424       .  S
O3110      C3121   1.290       .  A
O3111     Zr3117   2.439       .  S
O3111      C3122   1.293       .  A
O3112     Zr4317   2.450       .  S
O3112      C3123   1.294       .  A
O3113     Zr3147   2.457       .  S
O3113      C3123   1.297       .  A
O3114     Zr3146   2.439       .  S
O3114      C3122   1.294       .  A
O3115     Zr3117   2.475       .  S
O3115      C3121   1.298       .  A
O3116     Zr3117   2.470       .  S
O3116      C3120   1.299       .  A
Zr3117     O4312   2.458       .  S
Zr3117     O4318   2.346       .  S
Zr3117     O3119   2.348       .  S
Zr3117     O4327   2.354       .  S
Zr3117     O3125   2.353       .  S
O3118     Zr4317   2.346       .  S
O3118     Zr4344   2.342   1_545  S
O3118     Zr3147   2.344       .  S
O3119     Zr3145   2.340       .  S
O3119     Zr3146   2.338       .  S
C3120      C4729   1.496       .  S
C3121      C4705   1.487       .  S
C3122      C3241   1.486       .  S
C3123      C3225   1.487       .  S
H3124      O3125   0.966       .  S
O3125     Zr3144   2.347       .  S
O3125     Zr3146   2.349       .  S
H3126      O3127   0.965       .  S
O3127     Zr4317   2.354       .  S
O3127     Zr4345   2.349       .  S
O3127     Zr3147   2.348       .  S
O3128     Zr3144   2.462       .  S
O3128      C3151   1.295       .  A
O3129     Zr3145   2.485       .  S
O3129      C3152   1.300       .  A
O3130     Zr3146   2.469       .  S
O3130      C3153   1.298       .  A
O3131     Zr3147   2.491       .  S
O3131      C3154   1.303       .  A
O3132     Zr3147   2.480       .  S
O3132      C3155   1.300       .  A
O3133     Zr3146   2.475       .  S
O3133      C3156   1.299       .  A
O3134     Zr3148   2.444       .  S
O3134      C3157   1.294       .  A
O3135     Zr4348   2.442   1_545  S
O3135      C3158   1.294       .  A
O3136     Zr3146   2.429       .  S
O3136      C3157   1.291       .  A
O3137     Zr3147   2.440       .  S
O3137      C3158   1.294       .  A
O3138     Zr3144   2.404       .  S
O3138      C3153   1.287       .  A
O3139     Zr3145   2.415       .  S
O3139      C3156   1.289       .  A
O3140     Zr4345   2.415       .  S
O3140      C3155   1.289       .  A
O3141     Zr4344   2.388   1_545  S
O3141      C3154   1.283       .  A
O3142     Zr3148   2.402       .  S
O3142      C3151   1.286       .  A
O3143     Zr3148   2.407       .  S
O3143      C3152   1.286       .  A
Zr3144     O4341   2.407       .  S
Zr3144     O4318   2.341       .  S
Zr3144     O3150   2.332       .  S
Zr3144     O4362   2.326       .  S
Zr3145     O4340   2.408       .  S
Zr3145     O4327   2.354       .  S
Zr3145     O4349   2.327       .  S
Zr3145     O3160   2.323       .  S
Zr3146     O3150   2.348       .  S
Zr3146     O3160   2.344       .  S
Zr3147     O3149   2.354       .  S
Zr3147     O3162   2.348       .  S
Zr3148     O4335   2.440       .  S
Zr3148     O4349   2.340       .  S
Zr3148     O3150   2.334       .  S
Zr3148     O4362   2.334       .  S
Zr3148     O3160   2.331       .  S
O3149     Zr4345   2.322       .  S
O3149     Zr4348   2.333   1_545  S
C3151      C4689   1.485       .  S
C3152      C4673   1.487       .  S
C3153      C3337   1.484       .  S
C3154      C3313   1.489       .  S
C3155      C3289   1.491       .  S
C3156      C3297   1.485       .  S
C3157      C3249   1.482       .  S
C3158      C3265   1.481       .  S
H3159      O3160   0.965       .  S
H3161      O3162   0.964       .  S
O3162     Zr4344   2.323   1_545  S
O3162     Zr4348   2.337   1_545  S
O3163     Zr3199   2.439       .  S
O3163      C3174   1.293       .  A
O3164     Zr3198   2.441       .  S
O3164      C3175   1.293       .  A
O3165      C3176   1.284       .  A
O3166     Zr3171   2.412       .  S
O3166      C3177   1.287       .  A
O3167     Zr3201   2.481       .  S
O3167      C3177   1.300       .  A
O3168     Zr3200   2.490       .  S
O3168      C3176   1.302       .  A
O3169     Zr3171   2.446       .  S
O3169      C3175   1.293   1_556  A
O3170     Zr3171   2.439       .  S
O3170      C3174   1.292       .  A
Zr3171     O3172   2.331       .  S
Zr3171     O3181   2.339       .  S
O3172     Zr3198   2.342   1_556  S
O3172     Zr3201   2.343       .  S
O3173     Zr3200   2.340       .  S
C3176      C3361   1.486       .  S
C3177      C3385   1.486       .  S
H3178      O3179   0.963       .  S
O3179     Zr3200   2.351       .  S
H3180      O3181   0.967       .  S
O3181     Zr3199   2.347       .  S
O3181     Zr3201   2.351       .  S
O3182     Zr3198   2.440       .  S
O3182      C3205   1.292       .  A
O3183     Zr3199   2.439       .  S
O3183      C3206   1.293       .  A
O3184     Zr3200   2.424       .  S
O3184      C3207   1.291       .  A
O3185     Zr3201   2.442       .  S
O3185      C3208   1.294       .  A
O3186     Zr3201   2.427       .  S
O3186      C3209   1.291       .  A
O3187     Zr3200   2.448       .  S
O3187      C3210   1.295       .  A
O3188      C3211   1.285       .  A
O3189     Zr3202   2.410       .  S
O3189      C3212   1.288       .  A
O3190     Zr3200   2.483       .  S
O3190      C3211   1.301       .  A
O3191     Zr3201   2.475       .  S
O3191      C3212   1.299       .  A
O3192      C3207   1.297       .  A
O3193      C3210   1.294       .  A
O3194     Zr3199   2.456       .  S
O3194      C3209   1.296       .  A
O3195     Zr3198   2.434   1_556  S
O3195      C3208   1.292       .  A
O3196     Zr3202   2.455   1_554  S
O3196      C3205   1.296       .  A
O3197     Zr3202   2.449       .  S
O3197      C3206   1.294       .  A
Zr3198     O3216   2.352   1_554  S
Zr3199     O3203   2.339       .  S
Zr3200     O3204   2.355       .  S
Zr3200     O3214   2.345       .  S
Zr3201     O3203   2.342       .  S
Zr3201     O3216   2.352       .  S
Zr3202     O3203   2.333       .  S
Zr3202     O3216   2.337       .  S
C3207      C3233   1.487       .  S
C3208      C3257   1.483       .  S
C3209      C3273   1.483       .  S
C3210      C3217   1.484       .  S
C3211      C3353   1.486       .  S
C3212      C3401   1.487       .  S
H3213      O3214   0.964       .  S
H3215      O3216   0.965       .  S
C3217      C3218   1.406       .  A
C3217      C3222   1.406       .  A
C3218      C3219   1.402       .  A
C3218      H3227   1.083       .  S
C3219      C3220   1.405       .  A
C3219      H3228   1.083       .  S
C3220      C3226   1.413       .  A
C3220      C3221   1.415       .  A
C3221      C3223   1.401       .  A
C3221      C3222   1.408       .  A
C3222      H3229   1.084       .  S
C3223      C3224   1.397       .  A
C3223      H3230   1.083       .  S
C3224      C3225   1.405       .  A
C3224      H3231   1.083       .  S
C3225      C3226   1.411       .  A
C3226      H3232   1.084       .  S
C3233      C3234   1.410       .  A
C3233      C3238   1.407       .  A
C3234      C3235   1.396       .  A
C3234      H3243   1.083       .  S
C3235      C3236   1.400       .  A
C3235      H3244   1.084       .  S
C3236      C3242   1.404       .  A
C3236      C3237   1.413       .  A
C3237      C3239   1.401       .  A
C3237      C3238   1.406       .  A
C3238      H3245   1.084       .  S
C3239      C3240   1.397       .  A
C3239      H3246   1.084       .  S
C3240      C3241   1.408       .  A
C3240      H3247   1.083       .  S
C3241      C3242   1.408       .  A
C3242      H3248   1.084       .  S
C3249      C3250   1.408       .  A
C3249      C3254   1.407       .  A
C3250      C3251   1.395       .  A
C3250      H3259   1.083       .  S
C3251      C3252   1.400       .  A
C3251      H3260   1.084       .  S
C3252      C3258   1.402       .  A
C3252      C3253   1.413       .  A
C3253      C3255   1.401       .  A
C3253      C3254   1.403       .  A
C3254      H3261   1.084       .  S
C3255      C3256   1.397       .  A
C3255      H3262   1.084       .  S
C3256      C3257   1.408       .  A
C3256      H3263   1.083       .  S
C3257      C3258   1.406       .  A
C3258      H3264   1.084       .  S
C3265      C3266   1.407       .  A
C3265      C3270   1.406       .  A
C3266      C3267   1.397       .  A
C3266      H3275   1.083       .  S
C3267      C3268   1.401       .  A
C3267      H3276   1.084       .  S
C3268      C3274   1.404       .  A
C3268      C3269   1.414       .  A
C3269      C3271   1.401       .  A
C3269      C3270   1.403       .  A
C3270      H3277   1.084       .  S
C3271      C3272   1.396       .  A
C3271      H3278   1.084       .  S
C3272      C3273   1.408       .  A
C3272      H3279   1.083       .  S
C3273      C3274   1.406       .  A
C3274      H3280   1.084       .  S
C3281      C3282   1.412       .  A
C3281      C3286   1.407       .  A
C3282      C3283   1.397       .  A
C3282      H3291   1.083       .  S
C3283      C3284   1.399       .  A
C3283      H3292   1.084       .  S
C3284      C3290   1.410       .  A
C3284      C3285   1.416       .  A
C3285      C3287   1.399       .  A
C3285      C3286   1.411       .  A
C3286      H3293   1.084       .  S
C3287      C3288   1.398       .  A
C3287      H3294   1.084       .  S
C3288      C3289   1.412       .  A
C3288      H3295   1.083       .  S
C3289      C3290   1.406       .  A
C3290      H3296   1.084       .  S
C3297      C3298   1.409       .  A
C3297      C3302   1.406       .  A
C3298      C3299   1.395       .  A
C3298      H3307   1.083       .  S
C3299      C3300   1.398       .  A
C3299      H3308   1.084       .  S
C3300      C3306   1.408       .  A
C3300      C3301   1.417       .  A
C3301      C3303   1.400       .  A
C3301      C3302   1.411       .  A
C3302      H3309   1.084       .  S
C3303      C3304   1.397       .  A
C3303      H3310   1.084       .  S
C3304      C3305   1.410       .  A
C3304      H3311   1.084       .  S
C3305      C3306   1.402       .  A
C3306      H3312   1.084       .  S
C3313      C3314   1.416       .  A
C3313      C3318   1.400       .  A
C3314      C3315   1.395       .  A
C3314      H3323   1.083       .  S
C3315      C3316   1.396       .  A
C3315      H3324   1.084       .  S
C3316      C3322   1.410       .  A
C3316      C3317   1.418       .  A
C3317      C3319   1.393       .  A
C3317      C3318   1.406       .  A
C3318      H3325   1.084       .  S
C3319      C3320   1.390       .  A
C3319      H3326   1.084       .  S
C3320      C3321   1.413       .  A
C3320      H3327   1.083       .  S
C3321      C3322   1.405       .  A
C3322      H3328   1.084       .  S
C3329      C3330   1.412       .  A
C3329      C3334   1.401       .  A
C3330      C3331   1.396       .  A
C3330      H3339   1.083       .  S
C3331      C3332   1.399       .  A
C3331      H3340   1.084       .  S
C3332      C3338   1.407       .  A
C3332      C3333   1.416       .  A
C3333      C3335   1.396       .  A
C3333      C3334   1.403       .  A
C3334      H3341   1.084       .  S
C3335      C3336   1.392       .  A
C3335      H3342   1.084       .  S
C3336      C3337   1.411       .  A
C3336      H3343   1.083       .  S
C3337      C3338   1.405       .  A
C3338      H3344   1.084       .  S
C3345      C3346   1.414       .  A
C3345      C3350   1.404       .  A
C3346      C3347   1.392       .  A
C3346      H3355   1.083       .  S
C3347      C3348   1.395       .  A
C3347      H3356   1.084       .  S
C3348      C3354   1.406       .  A
C3348      C3349   1.417       .  A
C3349      C3351   1.397       .  A
C3349      C3350   1.409       .  A
C3350      H3357   1.084       .  S
C3351      C3352   1.395       .  A
C3351      H3358   1.084       .  S
C3352      C3353   1.413       .  A
C3352      H3359   1.083       .  S
C3353      C3354   1.402       .  A
C3354      H3360   1.084       .  S
C3361      C3362   1.414       .  A
C3361      C3366   1.402       .  A
C3362      C3363   1.395       .  A
C3362      H3371   1.083       .  S
C3363      C3364   1.397       .  A
C3363      H3372   1.084       .  S
C3364      C3370   1.408       .  A
C3364      C3365   1.417       .  A
C3365      C3367   1.397       .  A
C3365      C3366   1.407       .  A
C3366      H3373   1.084       .  S
C3367      C3368   1.394       .  A
C3367      H3374   1.084       .  S
C3368      C3369   1.411       .  A
C3368      H3375   1.083       .  S
C3369      C3370   1.405       .  A
C3370      H3376   1.084       .  S
C3377      C3378   1.409       .  A
C3377      C3382   1.406       .  A
C3378      C3379   1.399       .  A
C3378      H3387   1.083       .  S
C3379      C3380   1.401       .  A
C3379      H3388   1.084       .  S
C3380      C3386   1.411       .  A
C3380      C3381   1.417       .  A
C3381      C3383   1.400       .  A
C3381      C3382   1.411       .  A
C3382      H3389   1.084       .  S
C3383      C3384   1.397       .  A
C3383      H3390   1.084       .  S
C3384      C3385   1.410       .  A
C3384      H3391   1.084       .  S
C3385      C3386   1.405       .  A
C3386      H3392   1.084       .  S
C3393      C3394   1.412       .  A
C3393      C3398   1.401       .  A
C3394      C3395   1.394       .  A
C3394      H3403   1.083       .  S
C3395      C3396   1.398       .  A
C3395      H3404   1.084       .  S
C3396      C3402   1.406       .  A
C3396      C3397   1.416       .  A
C3397      C3399   1.396       .  A
C3397      C3398   1.403       .  A
C3398      H3405   1.084       .  S
C3399      C3400   1.394       .  A
C3399      H3406   1.084       .  S
C3400      C3401   1.412       .  A
C3400      H3407   1.083       .  S
C3401      C3402   1.405       .  A
C3402      H3408   1.084       .  S
C3409      C3410   1.406       .  A
C3410      C3411   1.397       .  A
C3410      H3419   1.083       .  S
C3411      C3412   1.401       .  A
C3411      H3420   1.084       .  S
C3412      C3418   1.405       .  A
C3413      C3415   1.403       .  A
C3413      C3414   1.408       .  A
C3414      H3421   1.084       .  S
C3415      C3416   1.399       .  A
C3415      H3422   1.084       .  S
C3416      H3423   1.083       .  S
C3417      C3418   1.407       .  A
C3418      H3424   1.084       .  S
C3425      C3430   1.410       .  A
C3426      C3427   1.396       .  A
C3426      H3435   1.083       .  S
C3427      C3428   1.401       .  A
C3427      H3436   1.084       .  S
C3428      C3434   1.404       .  A
C3428      C3429   1.414   1_556  A
C3430      H3437   1.084       .  S
C3431      C3432   1.401       .  A
C3431      H3438   1.084       .  S
C3432      C3433   1.407       .  A
C3432      H3439   1.083       .  S
C3434      H3440   1.084       .  S
C3441      C3442   1.408       .  A
C3442      C3443   1.399       .  A
C3442      H3451   1.083       .  S
C3443      C3444   1.402       .  A
C3443      H3452   1.084       .  S
C3444      C3450   1.407       .  A
C3445      C3447   1.402       .  A
C3445      C3446   1.408       .  A
C3446      H3453   1.084       .  S
C3447      C3448   1.398       .  A
C3447      H3454   1.084       .  S
C3448      H3455   1.083       .  S
C3449      C3450   1.409       .  A
C3450      H3456   1.084       .  S
C3457      C3462   1.411       .  A
C3458      C3459   1.396       .  A
C3458      H3467   1.083       .  S
C3459      C3460   1.401       .  A
C3459      H3468   1.084       .  S
C3460      C3466   1.404       .  A
C3461      C3463   1.405       .  A
C3461      C3462   1.410       .  A
C3462      H3469   1.084       .  S
C3463      C3464   1.402       .  A
C3463      H3470   1.084       .  S
C3464      C3465   1.407       .  A
C3464      H3471   1.083       .  S
C3466      H3472   1.084       .  S
C3473      C4352   1.479       .  S
C3473      C4674   1.411       .  A
C3473      C3478   1.401   1_565  A
C3474      C4673   1.411       .  A
C3474      C3475   1.401       .  A
C3474      H3483   1.084       .  S
C3475      C3476   1.402       .  A
C3475      H3484   1.084       .  S
C3476      C3482   1.411       .  A
C3476      C4677   1.416       .  A
C3477      C4676   1.417   1_545  A
C3477      C3479   1.397       .  A
C3477      C3478   1.403       .  A
C3478      H3485   1.084       .  S
C3479      C3480   1.392       .  A
C3479      H3486   1.084       .  S
C3480      C3481   1.409       .  A
C3480      H3487   1.083       .  S
C3481      C4682   1.403       .  A
C3482      C4681   1.408       .  A
C3482      H3488   1.084       .  S
C3489      C4351   1.474       .  S
C3489      C3490   1.410       .  A
C3489      C4694   1.401   1_565  A
C3490      C3491   1.388       .  A
C3490      H3499   1.083       .  S
C3491      C3492   1.394       .  A
C3491      H3500   1.084       .  S
C3492      C3498   1.399       .  A
C3492      C4693   1.418   1_565  A
C3493      C4692   1.416       .  A
C3493      C3495   1.400       .  A
C3493      C3494   1.409       .  A
C3494      C4689   1.407       .  A
C3494      H3501   1.084       .  S
C3495      C3496   1.398       .  A
C3495      H3502   1.084       .  S
C3496      C4697   1.412       .  A
C3496      H3503   1.083       .  S
C3497      C4696   1.411       .  A
C3497      C3498   1.397   1_545  A
C3498      H3504   1.084       .  S
C3505      C4321   1.490       .  S
C3505      C3506   1.408       .  A
C3505      C4710   1.410   1_545  A
C3506      C3507   1.396       .  A
C3506      H3515   1.084       .  S
C3507      C3508   1.400       .  A
C3507      H3516   1.083       .  S
C3508      C3514   1.412       .  A
C3508      C4709   1.416   1_545  A
C3509      C4708   1.416       .  A
C3509      C3511   1.404       .  A
C3509      C3510   1.415       .  A
C3510      C4705   1.409       .  A
C3510      H3517   1.084       .  S
C3511      C3512   1.404       .  A
C3511      H3518   1.084       .  S
C3512      C4713   1.411       .  A
C3512      H3519   1.083       .  S
C3513      C4712   1.411       .  A
C3513      C3514   1.406   1_565  A
C3514      H3520   1.084       .  S
C3521      C4722   1.414       .  A
C3521      C3526   1.407   1_545  A
C3522      C4721   1.415       .  A
C3522      C3523   1.399       .  A
C3522      H3531   1.083       .  S
C3523      C3524   1.399       .  A
C3523      H3532   1.084       .  S
C3524      C3530   1.414       .  A
C3524      C4725   1.416       .  A
C3525      C4724   1.416       .  A
C3525      C3527   1.399   1_545  A
C3525      C3526   1.413   1_545  A
C3526      H3533   1.084       .  S
C3527      C3528   1.397       .  A
C3527      H3534   1.083       .  S
C3528      C3529   1.410   1_565  A
C3528      H3535   1.083       .  S
C3529      C4320   1.493       .  S
C3529      C4730   1.408       .  A
C3530      C4729   1.409       .  A
C3530      H3536   1.084       .  S
C3537      C3542   1.411       .  A
C3538      C3539   1.397       .  A
C3538      H3547   1.083       .  S
C3539      C3540   1.400       .  A
C3539      H3548   1.084       .  S
C3540      C3546   1.406       .  A
C3541      C3543   1.402       .  A
C3541      C3542   1.409       .  A
C3542      H3549   1.084       .  S
C3543      C3544   1.398       .  A
C3543      H3550   1.084       .  S
C3544      C3545   1.409       .  A
C3544      H3551   1.083       .  S
C3546      H3552   1.084   1_455  S
C3553      C3554   1.408       .  A
C3554      C3555   1.400       .  A
C3554      H3563   1.083       .  S
C3555      C3556   1.403       .  A
C3555      H3564   1.084       .  S
C3556      C3562   1.409       .  A
C3557      C3559   1.400       .  A
C3557      C3558   1.402       .  A
C3558      H3565   1.084       .  S
C3559      C3560   1.395       .  A
C3559      H3566   1.084       .  S
C3560      H3567   1.083       .  S
C3561      C3562   1.409       .  A
C3562      H3568   1.084       .  S
C3569      C3574   1.407       .  A
C3570      C3571   1.400       .  A
C3570      H3579   1.083       .  S
C3571      C3572   1.403       .  A
C3571      H3580   1.083       .  S
C3572      C3578   1.408       .  A
C3573      C3575   1.401       .  A
C3573      C3574   1.405       .  A
C3574      H3581   1.084       .  S
C3575      C3576   1.397       .  A
C3575      H3582   1.084       .  S
C3576      C3577   1.407       .  A
C3576      H3583   1.083       .  S
C3578      H3584   1.084       .  S
C3585      C3586   1.407       .  A
C3586      C3587   1.396       .  A
C3586      H3595   1.083       .  S
C3587      C3588   1.400       .  A
C3587      H3596   1.083       .  S
C3588      C3594   1.404       .  A
C3589      C3591   1.400       .  A
C3589      C3590   1.407       .  A
C3590      H3597   1.084       .  S
C3591      C3592   1.397       .  A
C3591      H3598   1.084       .  S
C3592      H3599   1.083       .  S
C3593      C3594   1.407       .  A
C3594      H3600   1.084       .  S
O3601     Zr3637   2.435       .  S
O3601      C3612   1.293       .  A
O3602     Zr3636   2.432       .  S
O3602      C3613   1.291       .  A
O3603     Zr3609   2.444       .  S
O3603      C3614   1.294   1_554  A
O3604      C3615   1.294       .  A
O3605     Zr3639   2.449   1_554  S
O3605      C3615   1.295       .  A
O3606     Zr3638   2.453       .  S
O3606      C3614   1.296       .  A
O3607     Zr4209   2.446       .  S
O3607      C3613   1.294       .  A
O3608     Zr3609   2.437       .  S
O3608      C3612   1.293       .  A
Zr3609     O4207   2.434   1_554  S
Zr3609     O3611   2.346       .  S
Zr3609     O4217   2.346   1_554  S
O3610     Zr4239   2.329       .  S
O3611     Zr3637   2.356       .  S
O3611     Zr3638   2.354   1_554  S
C3612      C4185   1.482       .  S
C3613      C4137   1.486       .  S
C3614      C4057   1.491       .  S
C3615      C4033   1.488       .  S
H3616      O3617   0.964       .  S
O3617     Zr4209   2.342       .  S
O3617     Zr3636   2.337       .  S
O3617     Zr4238   2.337       .  S
H3618      O3619   0.966       .  S
O3619     Zr3639   2.350   1_554  S
O3620      C3643   1.295       .  A
O3621      C3644   1.295       .  A
O3622     Zr4238   2.484       .  S
O3622      C3645   1.301       .  A
O3623     Zr4239   2.461       .  S
O3623      C3646   1.296       .  A
O3624     Zr3639   2.414   1_554  S
O3624      C3647   1.288       .  A
O3625     Zr3638   2.447   1_554  S
O3625      C3648   1.294       .  A
O3626     Zr3640   2.442       .  S
O3626      C3649   1.294       .  A
O3627      C3650   1.295       .  A
O3628      C3649   1.296       .  A
O3629      C3650   1.293       .  A
O3630     Zr3636   2.370       .  S
O3630      C3645   1.280       .  A
O3631     Zr3637   2.481       .  S
O3631      C3648   1.301       .  A
O3632      C3647   1.302       .  A
O3633      C3646   1.286       .  A
O3634     Zr4240   2.448       .  S
O3634      C3643   1.294       .  A
O3635     Zr3640   2.454   1_554  S
O3635      C3644   1.296       .  A
Zr3638     O4222   2.469       .  S
Zr3638     O4217   2.344       .  S
Zr3639     O4223   2.460       .  S
Zr3639     O4210   2.330       .  S
Zr3640     O4234   2.460       .  S
Zr3640     O4242   2.343       .  S
Zr3640     O3652   2.338   1_556  S
O3642     Zr4240   2.336       .  S
C3643      C4153   1.494       .  S
C3644      C4169   1.495       .  S
C3645      C4097   1.481       .  S
C3646      C4081   1.478       .  S
C3647      C4121   1.487       .  S
C3648      C4113   1.499       .  S
C3649      C4041   1.489       .  S
C3650      C4017   1.487       .  S
H3651      O3652   0.964       .  S
H3653      O3654   0.965       .  S
O3655     Zr3691   2.439       .  S
O3655      C3666   1.294       .  A
O3656     Zr3690   2.448       .  S
O3656      C3667   1.296       .  A
O3657     Zr3663   2.463       .  S
O3657      C3668   1.296       .  A
O3658      C3669   1.299       .  A
O3659     Zr3693   2.411       .  S
O3659      C3669   1.286       .  A
O3660     Zr3692   2.423       .  S
O3660      C3668   1.289       .  A
O3661     Zr3663   2.438       .  S
O3661      C3667   1.294       .  A
O3662     Zr3663   2.447       .  S
O3662      C3666   1.296       .  A
Zr3663     O3665   2.344       .  S
Zr3663     O3671   2.349       .  S
O3664     Zr3693   2.333       .  S
O3665     Zr3691   2.352       .  S
O3665     Zr3692   2.331       .  S
C3666      C4193   1.486       .  S
C3667      C4145   1.486       .  S
C3668      C3921   1.478       .  S
C3669      C3881   1.484       .  S
H3670      O3671   0.965       .  S
O3671     Zr3690   2.350       .  S
O3671     Zr3692   2.325       .  S
H3672      O3673   0.965       .  S
O3673     Zr3693   2.326       .  S
O3674     Zr3690   2.457       .  S
O3674      C3697   1.297       .  A
O3675     Zr3691   2.459       .  S
O3675      C3698   1.297       .  A
O3676     Zr3692   2.444       .  S
O3676      C3699   1.293       .  A
O3677     Zr3693   2.386       .  S
O3677      C3700   1.282       .  A
O3678     Zr3693   2.397       .  S
O3678      C3701   1.284       .  A
O3679     Zr3692   2.422       .  S
O3679      C3702   1.289       .  A
O3680     Zr3694   2.486       .  S
O3680      C3703   1.302       .  A
O3681      C3704   1.296       .  A
O3682     Zr3692   2.404       .  S
O3682      C3703   1.286       .  A
O3683     Zr3693   2.408       .  S
O3683      C3704   1.286       .  A
O3684     Zr3690   2.455       .  S
O3684      C3699   1.294       .  A
O3685     Zr3691   2.465       .  S
O3685      C3702   1.297       .  A
O3686      C3701   1.300       .  A
O3687      C3700   1.298       .  A
O3688     Zr3694   2.443       .  S
O3688      C3697   1.294       .  A
O3689     Zr3694   2.442       .  S
O3689      C3698   1.295       .  A
Zr3690     O3696   2.347       .  S
Zr3691     O3706   2.345       .  S
Zr3692     O3696   2.339       .  S
Zr3692     O3706   2.340       .  S
Zr3693     O3695   2.328       .  S
Zr3693     O3708   2.325       .  S
Zr3694     O3696   2.352       .  S
Zr3694     O3706   2.351       .  S
C3697      C4161   1.492       .  S
C3698      C4177   1.493       .  S
C3699      C3977   1.480       .  S
C3700      C3993   1.474       .  S
C3701      C3945   1.483       .  S
C3702      C3969   1.490       .  S
C3703      C3929   1.487       .  S
C3704      C3905   1.479       .  S
H3705      O3706   0.964       .  S
H3707      O3708   0.963       .  S
O3709     Zr3745   2.410       .  S
O3709      C3720   1.288       .  A
O3710     Zr3744   2.425   1_545  S
O3710      C3721   1.291       .  A
O3711     Zr3717   2.445   1_565  S
O3711      C3722   1.294       .  A
O3712      C3723   1.291       .  A
O3713     Zr3747   2.480       .  S
O3713      C3723   1.301       .  A
O3714     Zr3746   2.455       .  S
O3714      C3722   1.296       .  A
O3715     Zr3717   2.474       .  S
O3715      C3721   1.299       .  A
O3716     Zr3717   2.480       .  S
O3716      C3720   1.300       .  A
Zr3717     O3719   2.346   1_545  S
Zr3717     O3725   2.354   1_545  S
O3718     Zr3747   2.345       .  S
O3719     Zr3745   2.348   1_565  S
O3719     Zr3746   2.343       .  S
C3722      C3841   1.494       .  S
C3723      C3825   1.492       .  S
H3724      O3725   0.966       .  S
O3725     Zr3744   2.348       .  S
O3725     Zr3746   2.346       .  S
H3726      O3727   0.965       .  S
O3727     Zr3747   2.343       .  S
O3728     Zr3744   2.454       .  S
O3728      C3751   1.295       .  A
O3729     Zr3745   2.471   1_565  S
O3729      C3752   1.297       .  A
O3730     Zr3746   2.474       .  S
O3730      C3753   1.299       .  A
O3731     Zr3747   2.465       .  S
O3731      C3754   1.298       .  A
O3732     Zr3747   2.460       .  S
O3732      C3755   1.297       .  A
O3733     Zr3746   2.469       .  S
O3733      C3756   1.298       .  A
O3734     Zr3748   2.449       .  S
O3734      C3757   1.295       .  A
O3735      C3758   1.294       .  A
O3736     Zr3746   2.436       .  S
O3736      C3757   1.293       .  A
O3737     Zr3747   2.455       .  S
O3737      C3758   1.297       .  A
O3738     Zr3744   2.420       .  S
O3738      C3753   1.289       .  A
O3739     Zr3745   2.412   1_565  S
O3739      C3756   1.288       .  A
O3740      C3755   1.290       .  A
O3741      C3754   1.291       .  A
O3742     Zr3748   2.394       .  S
O3742      C3751   1.284       .  A
O3743     Zr3748   2.410       .  S
O3743      C3752   1.286       .  A
Zr3744     O3750   2.331       .  S
Zr3745     O3760   2.325   1_545  S
Zr3746     O3750   2.346       .  S
Zr3746     O3760   2.352       .  S
Zr3747     O3749   2.353       .  S
Zr3747     O3762   2.354       .  S
Zr3748     O3750   2.334       .  S
Zr3748     O3760   2.329       .  S
C3753      C3937   1.489       .  S
C3754      C3913   1.480       .  S
C3755      C3889   1.481       .  S
C3756      C3897   1.480       .  S
C3757      C3849   1.486       .  S
C3758      C3865   1.492       .  S
H3759      O3760   0.965       .  S
H3761      O3762   0.964       .  S
O3763     Zr3799   2.434       .  S
O3763      C3774   1.292       .  A
O3764     Zr3798   2.425       .  S
O3764      C3775   1.290       .  A
O3765     Zr4371   2.408   1_554  S
O3765      C3776   1.287       .  A
O3766     Zr3771   2.427       .  S
O3766      C3777   1.289       .  A
O3767     Zr3801   2.470       .  S
O3767      C3777   1.297       .  A
O3768     Zr3800   2.477       .  S
O3768      C3776   1.300       .  A
O3769     Zr3771   2.456       .  S
O3769      C3775   1.296       .  A
O3770     Zr3771   2.451       .  S
O3770      C3774   1.295       .  A
Zr3771     O4365   2.404       .  S
Zr3771     O3772   2.329       .  S
Zr3771     O4373   2.339       .  S
Zr3771     O3781   2.342       .  S
Zr3771     O4379   2.341       .  S
O3772     Zr3798   2.349       .  S
O3772     Zr3801   2.341       .  S
O3773     Zr4371   2.339   1_554  S
O3773     Zr4399   2.340   1_554  S
O3773     Zr3800   2.348       .  S
C3774      C4665   1.487       .  S
C3775      C4649   1.488       .  S
C3776      C3961   1.489       .  S
C3777      C3985   1.480       .  S
H3778      O3779   0.963       .  S
O3779     Zr4371   2.334   1_554  S
O3779     Zr4398   2.342       .  S
O3779     Zr3800   2.351       .  S
H3780      O3781   0.967       .  S
O3781     Zr3799   2.352       .  S
O3781     Zr3801   2.347       .  S
O3782     Zr3798   2.438       .  S
O3782      C3805   1.292       .  A
O3783     Zr3799   2.453       .  S
O3783      C3806   1.296       .  A
O3784     Zr3800   2.447       .  S
O3784      C3807   1.295       .  A
O3785     Zr3801   2.451       .  S
O3785      C3808   1.296       .  A
O3786     Zr3801   2.440       .  S
O3786      C3809   1.294       .  A
O3787     Zr3800   2.462       .  S
O3787      C3810   1.297       .  A
O3788     Zr4402   2.408       .  S
O3788      C3811   1.287       .  A
O3789     Zr3802   2.417       .  S
O3789      C3812   1.289       .  A
O3790     Zr3800   2.478       .  S
O3790      C3811   1.299       .  A
O3791     Zr3801   2.449       .  S
O3791      C3812   1.295       .  A
O3792     Zr4398   2.461       .  S
O3792      C3807   1.297       .  A
O3793     Zr4399   2.452   1_554  S
O3793      C3810   1.296       .  A
O3794     Zr3799   2.460       .  S
O3794      C3809   1.297       .  A
O3795     Zr3798   2.419       .  S
O3795      C3808   1.290       .  A
O3796     Zr3802   2.460       .  S
O3796      C3805   1.296       .  A
O3797     Zr3802   2.438       .  S
O3797      C3806   1.292       .  A
Zr3798     O4392   2.460       .  S
Zr3798     O4379   2.336       .  S
Zr3798     O4404   2.338       .  S
Zr3798     O3816   2.344       .  S
Zr3799     O4393   2.457       .  S
Zr3799     O4373   2.341       .  S
Zr3799     O3803   2.337       .  S
Zr3799     O4414   2.340       .  S
Zr3800     O3804   2.355       .  S
Zr3800     O3814   2.345       .  S
Zr3801     O3803   2.344       .  S
Zr3801     O3816   2.354       .  S
Zr3802     O4388   2.415       .  S
Zr3802     O3803   2.338       .  S
Zr3802     O4404   2.340       .  S
Zr3802     O3816   2.332       .  S
Zr3802     O4414   2.344       .  S
O3804     Zr4398   2.346       .  S
O3804     Zr4402   2.338       .  S
C3805      C4609   1.489       .  S
C3806      C4625   1.487       .  S
C3807      C3833   1.495       .  S
C3808      C3857   1.482       .  S
C3809      C3873   1.494       .  S
C3810      C3817   1.492       .  S
C3811      C3953   1.485       .  S
C3812      C4001   1.476       .  S
H3813      O3814   0.964       .  S
O3814     Zr4399   2.347   1_554  S
O3814     Zr4402   2.335       .  S
H3815      O3816   0.965       .  S
C3817      C3818   1.408       .  A
C3817      C3822   1.409       .  A
C3818      C3819   1.403       .  A
C3818      H3827   1.083       .  S
C3819      C3820   1.405       .  A
C3819      H3828   1.083       .  S
C3820      C3826   1.415       .  A
C3820      C3821   1.414       .  A
C3821      C3823   1.402       .  A
C3821      C3822   1.411       .  A
C3822      H3829   1.084       .  S
C3823      C3824   1.399       .  A
C3823      H3830   1.083       .  S
C3824      C3825   1.404       .  A
C3824      H3831   1.083       .  S
C3825      C3826   1.414       .  A
C3826      H3832   1.084       .  S
C3833      C3834   1.410       .  A
C3833      C3838   1.411       .  A
C3834      C3835   1.399       .  A
C3834      H3843   1.083       .  S
C3835      C3836   1.401       .  A
C3835      H3844   1.084       .  S
C3836      C3842   1.409       .  A
C3836      C3837   1.413       .  A
C3837      C3839   1.402       .  A
C3837      C3838   1.410       .  A
C3838      H3845   1.084       .  S
C3839      C3840   1.400       .  A
C3839      H3846   1.084       .  S
C3840      C3841   1.410       .  A
C3840      H3847   1.083       .  S
C3841      C3842   1.410       .  A
C3842      H3848   1.084       .  S
C3849      C3850   1.409       .  A
C3849      C3854   1.408       .  A
C3850      C3851   1.395       .  A
C3850      H3859   1.083       .  S
C3851      C3852   1.399       .  A
C3851      H3860   1.084       .  S
C3852      C3858   1.403       .  A
C3852      C3853   1.414       .  A
C3853      C3855   1.400       .  A
C3853      C3854   1.405       .  A
C3854      H3861   1.084       .  S
C3855      C3856   1.396       .  A
C3855      H3862   1.084       .  S
C3856      C3857   1.410       .  A
C3856      H3863   1.083       .  S
C3857      C3858   1.405       .  A
C3858      H3864   1.084       .  S
C3865      C3866   1.410       .  A
C3865      C3870   1.409       .  A
C3866      C3867   1.400       .  A
C3866      H3875   1.083       .  S
C3867      C3868   1.402       .  A
C3867      H3876   1.084       .  S
C3868      C3874   1.410       .  A
C3868      C3869   1.413       .  A
C3869      C3871   1.400       .  A
C3869      C3870   1.407       .  A
C3870      H3877   1.084       .  S
C3871      C3872   1.398       .  A
C3871      H3878   1.084       .  S
C3872      C3873   1.410       .  A
C3872      H3879   1.083       .  S
C3873      C3874   1.410       .  A
C3874      H3880   1.084       .  S
C3881      C3882   1.410       .  A
C3881      C3886   1.403       .  A
C3882      C3883   1.398       .  A
C3882      H3891   1.083       .  S
C3883      C3884   1.400       .  A
C3883      H3892   1.084       .  S
C3884      C3890   1.407       .  A
C3884      C3885   1.416       .  A
C3885      C3887   1.399       .  A
C3885      C3886   1.406       .  A
C3886      H3893   1.084       .  S
C3887      C3888   1.395       .  A
C3887      H3894   1.084       .  S
C3888      C3889   1.408       .  A
C3888      H3895   1.083       .  S
C3889      C3890   1.405       .  A
C3890      H3896   1.084       .  S
C3897      C3898   1.409       .  A
C3897      C3902   1.402       .  A
C3898      C3899   1.396       .  A
C3898      H3907   1.083       .  S
C3899      C3900   1.399       .  A
C3899      H3908   1.084       .  S
C3900      C3906   1.407       .  A
C3900      C3901   1.417       .  A
C3901      C3903   1.398       .  A
C3901      C3902   1.405       .  A
C3902      H3909   1.084       .  S
C3903      C3904   1.393       .  A
C3903      H3910   1.084       .  S
C3904      C3905   1.409       .  A
C3904      H3911   1.083       .  S
C3905      C3906   1.403       .  A
C3906      H3912   1.084       .  S
C3913      C3914   1.407       .  A
C3913      C3918   1.403       .  A
C3914      C3915   1.400       .  A
C3914      H3923   1.084       .  S
C3915      C3916   1.403       .  A
C3915      H3924   1.084       .  S
C3916      C3922   1.410       .  A
C3916      C3917   1.417       .  A
C3917      C3919   1.400       .  A
C3917      C3918   1.407       .  A
C3918      H3925   1.084       .  S
C3919      C3920   1.396       .  A
C3919      H3926   1.084       .  S
C3920      C3921   1.405       .  A
C3920      H3927   1.084       .  S
C3921      C3922   1.406       .  A
C3922      H3928   1.084       .  S
C3929      C3930   1.412       .  A
C3929      C3934   1.402       .  A
C3930      C3931   1.398       .  A
C3930      H3939   1.083       .  S
C3931      C3932   1.400       .  A
C3931      H3940   1.084       .  S
C3932      C3938   1.413       .  A
C3932      C3933   1.417       .  A
C3933      C3935   1.397       .  A
C3933      C3934   1.408       .  A
C3934      H3941   1.084       .  S
C3935      C3936   1.394       .  A
C3935      H3942   1.084       .  S
C3936      C3937   1.410       .  A
C3936      H3943   1.083       .  S
C3937      C3938   1.407       .  A
C3938      H3944   1.084       .  S
C3945      C3946   1.411       .  A
C3945      C3950   1.403       .  A
C3946      C3947   1.396       .  A
C3946      H3955   1.083       .  S
C3947      C3948   1.399       .  A
C3947      H3956   1.084       .  S
C3948      C3954   1.409       .  A
C3948      C3949   1.417       .  A
C3949      C3951   1.398       .  A
C3949      C3950   1.408       .  A
C3950      H3957   1.084       .  S
C3951      C3952   1.395       .  A
C3951      H3958   1.084       .  S
C3952      C3953   1.410       .  A
C3952      H3959   1.083       .  S
C3953      C3954   1.404       .  A
C3954      H3960   1.084       .  S
C3961      C3962   1.412       .  A
C3961      C3966   1.404       .  A
C3962      C3963   1.398       .  A
C3962      H3971   1.083       .  S
C3963      C3964   1.400       .  A
C3963      H3972   1.084       .  S
C3964      C3970   1.411       .  A
C3964      C3965   1.416       .  A
C3965      C3967   1.397       .  A
C3965      C3966   1.407       .  A
C3966      H3973   1.084       .  S
C3967      C3968   1.394       .  A
C3967      H3974   1.084       .  S
C3968      C3969   1.411       .  A
C3968      H3975   1.083       .  S
C3969      C3970   1.408       .  A
C3970      H3976   1.084       .  S
C3977      C3978   1.405       .  A
C3977      C3982   1.405       .  A
C3978      C3979   1.400       .  A
C3978      H3987   1.084       .  S
C3979      C3980   1.403       .  A
C3979      H3988   1.083       .  S
C3980      C3986   1.412       .  A
C3980      C3981   1.417       .  A
C3981      C3983   1.402       .  A
C3981      C3982   1.410       .  A
C3982      H3989   1.084       .  S
C3983      C3984   1.398       .  A
C3983      H3990   1.083       .  S
C3984      C3985   1.405       .  A
C3984      H3991   1.084       .  S
C3985      C3986   1.407       .  A
C3986      H3992   1.084       .  S
C3993      C3994   1.411       .  A
C3993      C3998   1.398       .  A
C3994      C3995   1.393       .  A
C3994      H4003   1.083       .  S
C3995      C3996   1.398       .  A
C3995      H4004   1.084       .  S
C3996      C4002   1.403       .  A
C3996      C3997   1.417       .  A
C3997      C3999   1.396       .  A
C3997      C3998   1.400       .  A
C3998      H4005   1.084       .  S
C3999      C4000   1.392       .  A
C3999      H4006   1.084       .  S
C4000      C4001   1.408       .  A
C4000      H4007   1.083       .  S
C4001      C4002   1.403       .  A
C4002      H4008   1.084       .  S
C4009      C4405   1.494       .  S
C4009      C4010   1.408       .  A
C4009      C4614   1.413       .  A
C4010      C4011   1.399       .  A
C4010      H4019   1.083       .  S
C4011      C4012   1.402       .  A
C4011      H4020   1.084       .  S
C4012      C4018   1.406       .  A
C4012      C4613   1.412       .  A
C4013      C4612   1.414       .  A
C4013      C4015   1.404       .  A
C4013      C4014   1.409       .  A
C4014      C4609   1.412       .  A
C4014      H4021   1.084       .  S
C4015      C4016   1.400       .  A
C4015      H4022   1.084       .  S
C4016      C4617   1.407       .  A
C4016      H4023   1.083       .  S
C4017      C4616   1.408       .  A
C4017      C4018   1.408   1_556  A
C4018      H4024   1.084       .  S
C4025      C4406   1.486       .  S
C4025      C4626   1.407       .  A
C4025      C4030   1.409   1_556  A
C4026      C4625   1.406       .  A
C4026      C4027   1.397       .  A
C4026      H4035   1.083       .  S
C4027      C4028   1.401       .  A
C4027      H4036   1.084       .  S
C4028      C4034   1.405       .  A
C4028      C4029   1.413       .  A
C4029      C4631   1.404       .  A
C4029      C4630   1.408       .  A
C4030      C4629   1.407       .  A
C4030      H4037   1.084       .  S
C4031      C4629   1.403       .  A
C4031      C4032   1.401       .  A
C4031      H4038   1.084       .  S
C4032      C4033   1.407       .  A
C4032      H4039   1.083       .  S
C4033      C4634   1.409   1_554  A
C4034      C4633   1.407       .  A
C4034      H4040   1.084       .  S
C4041      C4042   1.408       .  A
C4041      C4646   1.409   1_556  A
C4042      C4043   1.397       .  A
C4042      H4051   1.083       .  S
C4043      C4044   1.400       .  A
C4043      H4052   1.084       .  S
C4044      C4050   1.406       .  A
C4044      C4645   1.414   1_556  A
C4045      C4644   1.413       .  A
C4045      C4047   1.402       .  A
C4045      C4046   1.407       .  A
C4046      C4641   1.411       .  A
C4046      H4053   1.084       .  S
C4047      C4048   1.399       .  A
C4047      H4054   1.084       .  S
C4048      C4649   1.410       .  A
C4048      H4055   1.083       .  S
C4049      C4375   1.487       .  S
C4049      C4648   1.409       .  A
C4049      C4050   1.407   1_554  A
C4050      H4056   1.084       .  S
C4057      C4658   1.408       .  A
C4057      C4062   1.411   1_556  A
C4058      C4657   1.407       .  A
C4058      C4059   1.398       .  A
C4058      H4067   1.083       .  S
C4059      C4060   1.402       .  A
C4059      H4068   1.084       .  S
C4060      C4066   1.405       .  A
C4060      C4661   1.413       .  A
C4061      C4660   1.413   1_554  A
C4061      C4063   1.403       .  A
C4061      C4062   1.410       .  A
C4062      H4069   1.084       .  S
C4063      C4064   1.400       .  A
C4063      H4070   1.084       .  S
C4064      C4065   1.408   1_554  A
C4064      H4071   1.083       .  S
C4065      C4374   1.491       .  S
C4065      C4666   1.409       .  A
C4066      C4665   1.409       .  A
C4066      H4072   1.084       .  S
C4073      C4078   1.403       .  A
C4074      C4075   1.397       .  A
C4074      H4083   1.083       .  S
C4075      C4076   1.400       .  A
C4075      H4084   1.084       .  S
C4076      C4082   1.404       .  A
C4077      C4079   1.399       .  A
C4077      C4078   1.405       .  A
C4078      H4085   1.084       .  S
C4079      C4080   1.395       .  A
C4079      H4086   1.084       .  S
C4080      C4081   1.409       .  A
C4080      H4087   1.083       .  S
C4082      H4088   1.085       .  S
C4089      C4090   1.412       .  A
C4090      C4091   1.392       .  A
C4090      H4099   1.083       .  S
C4091      C4092   1.395       .  A
C4091      H4100   1.084       .  S
C4092      C4098   1.404       .  A
C4093      C4095   1.395   1_565  A
C4093      C4094   1.401       .  A
C4094      H4101   1.085   1_565  S
C4095      C4096   1.391       .  A
C4095      H4102   1.084       .  S
C4096      H4103   1.083       .  S
C4097      C4098   1.400       .  A
C4098      H4104   1.084       .  S
C4105      C4106   1.407       .  A
C4106      C4107   1.396       .  A
C4106      H4115   1.083       .  S
C4107      C4108   1.400       .  A
C4107      H4116   1.083       .  S
C4108      C4114   1.409       .  A
C4109      C4111   1.403       .  A
C4109      C4110   1.413       .  A
C4110      H4117   1.084       .  S
C4111      C4112   1.402       .  A
C4111      H4118   1.084       .  S
C4112      H4119   1.083       .  S
C4113      C4114   1.407       .  A
C4114      H4120   1.084       .  S
C4121      C4126   1.404       .  A
C4122      C4123   1.397       .  A
C4122      H4131   1.083       .  S
C4123      C4124   1.398       .  A
C4123      H4132   1.084       .  S
C4124      C4130   1.410       .  A
C4125      C4127   1.400       .  A
C4125      C4126   1.411       .  A
C4126      H4133   1.084       .  S
C4127      C4128   1.397       .  A
C4127      H4134   1.083       .  S
C4128      C4129   1.408       .  A
C4128      H4135   1.083       .  S
C4130      H4136   1.084       .  S
C4137      C4142   1.410       .  A
C4138      C4139   1.396   1_455  A
C4138      H4147   1.083   1_455  S
C4139      C4140   1.401   1_655  A
C4139      H4148   1.084       .  S
C4140      C4146   1.405       .  A
C4141      C4143   1.402       .  A
C4141      C4142   1.405       .  A
C4142      H4149   1.084       .  S
C4143      C4144   1.398       .  A
C4143      H4150   1.084       .  S
C4144      C4145   1.409       .  A
C4144      H4151   1.083       .  S
C4146      H4152   1.084   1_455  S
C4153      C4154   1.409       .  A
C4154      C4155   1.401       .  A
C4154      H4163   1.083       .  S
C4155      C4156   1.404       .  A
C4155      H4164   1.084       .  S
C4156      C4162   1.408       .  A
C4157      C4159   1.401       .  A
C4157      C4158   1.404       .  A
C4158      H4165   1.084       .  S
C4159      C4160   1.397       .  A
C4159      H4166   1.084       .  S
C4160      H4167   1.083       .  S
C4161      C4162   1.412       .  A
C4162      H4168   1.084       .  S
C4169      C4174   1.412       .  A
C4170      C4171   1.402       .  A
C4170      H4179   1.083       .  S
C4171      C4172   1.403       .  A
C4171      H4180   1.084       .  S
C4172      C4178   1.411       .  A
C4173      C4175   1.403       .  A
C4173      C4174   1.410       .  A
C4174      H4181   1.084       .  S
C4175      C4176   1.400       .  A
C4175      H4182   1.084       .  S
C4176      C4177   1.410       .  A
C4176      H4183   1.083       .  S
C4178      H4184   1.084       .  S
C4185      C4186   1.407       .  A
C4186      C4187   1.395       .  A
C4186      H4195   1.083       .  S
C4187      C4188   1.400       .  A
C4187      H4196   1.084       .  S
C4188      C4194   1.402       .  A
C4189      C4191   1.400       .  A
C4189      C4190   1.404       .  A
C4190      H4197   1.084       .  S
C4191      C4192   1.397   1_455  A
C4191      H4198   1.084   1_455  S
C4192      H4199   1.083       .  S
C4193      C4194   1.407       .  A
C4194      H4200   1.084       .  S
O4201     Zr4237   2.440       .  S
O4201      C4212   1.293       .  A
O4202     Zr4236   2.455       .  S
O4202      C4213   1.296       .  A
O4203     Zr4209   2.445       .  S
O4203      C4214   1.294       .  A
O4204      C4215   1.291       .  A
O4205     Zr4239   2.463       .  S
O4205      C4215   1.297       .  A
O4206     Zr4238   2.456       .  S
O4206      C4214   1.297       .  A
O4207      C4213   1.292       .  A
O4208     Zr4209   2.444       .  S
O4208      C4212   1.294       .  A
Zr4209     O4211   2.347       .  S
O4211     Zr4237   2.358       .  S
O4211     Zr4238   2.358       .  S
C4212      C4785   1.488       .  S
C4213      C4737   1.487       .  S
C4214      C4657   1.491       .  S
C4215      C4633   1.489       .  S
H4216      O4217   0.964       .  S
O4217     Zr4236   2.347       .  S
H4218      O4219   0.966       .  S
O4219     Zr4239   2.351       .  S
O4220      C4243   1.293       .  A
O4221      C4244   1.296       .  A
O4222      C4245   1.299       .  A
O4223      C4246   1.295       .  A
O4224     Zr4239   2.418       .  S
O4224      C4247   1.290       .  A
O4225     Zr4238   2.442       .  S
O4225      C4248   1.294       .  A
O4226     Zr4240   2.452       .  S
O4226      C4249   1.296       .  A
O4227      C4250   1.294       .  A
O4228      C4249   1.293       .  A
O4229      C4250   1.294       .  A
O4230     Zr4236   2.394       .  S
O4230      C4245   1.285       .  A
O4231     Zr4237   2.483       .  S
O4231      C4248   1.302       .  A
O4232      C4247   1.304       .  A
O4233      C4246   1.290       .  A
O4234      C4243   1.297       .  A
O4235     Zr4240   2.445       .  S
O4235      C4244   1.294       .  A
Zr4240     O4252   2.342       .  S
C4243      C4753   1.487       .  S
C4244      C4769   1.491       .  S
C4245      C4697   1.481       .  S
C4246      C4681   1.485       .  S
C4247      C4721   1.501       .  S
C4248      C4713   1.492       .  S
C4249      C4641   1.490       .  S
C4250      C4617   1.484       .  S
H4251      O4252   0.964       .  S
H4253      O4254   0.966       .  S
O4255     Zr4291   2.434       .  S
O4255      C4266   1.293       .  A
O4256     Zr4290   2.450       .  S
O4256      C4267   1.296       .  A
O4257     Zr4263   2.472       .  S
O4257      C4268   1.298       .  A
O4258      C4269   1.298       .  A
O4259     Zr4293   2.410       .  S
O4259      C4269   1.286       .  A
O4260     Zr4292   2.405       .  S
O4260      C4268   1.286       .  A
O4261     Zr4263   2.437       .  S
O4261      C4267   1.294       .  A
O4262     Zr4263   2.452       .  S
O4262      C4266   1.296       .  A
Zr4263     O4265   2.344       .  S
Zr4263     O4271   2.349       .  S
O4264     Zr4293   2.322       .  S
O4265     Zr4291   2.348       .  S
O4265     Zr4292   2.326       .  S
C4266      C4793   1.487       .  S
C4267      C4745   1.486       .  S
C4268      C4521   1.483       .  S
C4269      C4481   1.489       .  S
H4270      O4271   0.964       .  S
O4271     Zr4290   2.349       .  S
O4271     Zr4292   2.330       .  S
H4272      O4273   0.965       .  S
O4273     Zr4293   2.319       .  S
O4274     Zr4290   2.455       .  S
O4274      C4297   1.296       .  A
O4275     Zr4291   2.457       .  S
O4275      C4298   1.297       .  A
O4276     Zr4292   2.440       .  S
O4276      C4299   1.292       .  A
O4277     Zr4293   2.387       .  S
O4277      C4300   1.283       .  A
O4278     Zr4293   2.395       .  S
O4278      C4301   1.284       .  A
O4279     Zr4292   2.442       .  S
O4279      C4302   1.293       .  A
O4280     Zr4294   2.473       .  S
O4280      C4303   1.299       .  A
O4281      C4304   1.300       .  A
O4282     Zr4292   2.407       .  S
O4282      C4303   1.287       .  A
O4283     Zr4293   2.387       .  S
O4283      C4304   1.282       .  A
O4284     Zr4290   2.468       .  S
O4284      C4299   1.297       .  A
O4285     Zr4291   2.457       .  S
O4285      C4302   1.295       .  A
O4286      C4301   1.301       .  A
O4287      C4300   1.296       .  A
O4288     Zr4294   2.451       .  S
O4288      C4297   1.295       .  A
O4289     Zr4294   2.446       .  S
O4289      C4298   1.295       .  A
Zr4290     O4296   2.350       .  S
Zr4291     O4306   2.352       .  S
Zr4292     O4296   2.338       .  S
Zr4292     O4306   2.339       .  S
Zr4293     O4295   2.326       .  S
Zr4293     O4308   2.331       .  S
Zr4294     O4296   2.350       .  S
Zr4294     O4306   2.352       .  S
C4297      C4761   1.487       .  S
C4298      C4777   1.492       .  S
C4299      C4577   1.488       .  S
C4300      C4593   1.473       .  S
C4301      C4545   1.484       .  S
C4302      C4569   1.490       .  S
C4303      C4529   1.488       .  S
C4304      C4505   1.488       .  S
H4305      O4306   0.965       .  S
H4307      O4308   0.964       .  S
O4309     Zr4345   2.425       .  S
O4309      C4320   1.291       .  A
O4310     Zr4344   2.427   1_545  S
O4310      C4321   1.291       .  A
O4311     Zr4317   2.435   1_565  S
O4311      C4322   1.292       .  A
O4312      C4323   1.296       .  A
O4313     Zr4347   2.449       .  S
O4313      C4323   1.295       .  A
O4314     Zr4346   2.450       .  S
O4314      C4322   1.296       .  A
O4315     Zr4317   2.475       .  S
O4315      C4321   1.298       .  A
O4316     Zr4317   2.474       .  S
O4316      C4320   1.299       .  A
Zr4317     O4319   2.349   1_545  S
Zr4317     O4325   2.354   1_545  S
O4318     Zr4347   2.345       .  S
O4319     Zr4345   2.346   1_565  S
O4319     Zr4346   2.349       .  S
C4322      C4441   1.488       .  S
C4323      C4425   1.492       .  S
H4324      O4325   0.966       .  S
O4325     Zr4344   2.344       .  S
O4325     Zr4346   2.345       .  S
H4326      O4327   0.965       .  S
O4327     Zr4347   2.345       .  S
O4328     Zr4344   2.472       .  S
O4328      C4351   1.297       .  A
O4329     Zr4345   2.469   1_565  S
O4329      C4352   1.297       .  A
O4330     Zr4346   2.488       .  S
O4330      C4353   1.301       .  A
O4331     Zr4347   2.477       .  S
O4331      C4354   1.300       .  A
O4332     Zr4347   2.477       .  S
O4332      C4355   1.300       .  A
O4333     Zr4346   2.484       .  S
O4333      C4356   1.302       .  A
O4334     Zr4348   2.452       .  S
O4334      C4357   1.295       .  A
O4335      C4358   1.293       .  A
O4336     Zr4346   2.432       .  S
O4336      C4357   1.292       .  A
O4337     Zr4347   2.438       .  S
O4337      C4358   1.294       .  A
O4338     Zr4344   2.397       .  S
O4338      C4353   1.285       .  A
O4339     Zr4345   2.405   1_565  S
O4339      C4356   1.286       .  A
O4340      C4355   1.288       .  A
O4341      C4354   1.287       .  A
O4342     Zr4348   2.377       .  S
O4342      C4351   1.281       .  A
O4343     Zr4348   2.393       .  S
O4343      C4352   1.283       .  A
Zr4344     O4350   2.325       .  S
Zr4345     O4360   2.326   1_545  S
Zr4346     O4350   2.348       .  S
Zr4346     O4360   2.349       .  S
Zr4347     O4349   2.353       .  S
Zr4347     O4362   2.347       .  S
Zr4348     O4350   2.333       .  S
Zr4348     O4360   2.324       .  S
C4353      C4537   1.491       .  S
C4354      C4513   1.483       .  S
C4355      C4489   1.489       .  S
C4356      C4497   1.490       .  S
C4357      C4449   1.482       .  S
C4358      C4465   1.480       .  S
H4359      O4360   0.965       .  S
H4361      O4362   0.964       .  S
O4363     Zr4399   2.447       .  S
O4363      C4374   1.294       .  A
O4364     Zr4398   2.430       .  S
O4364      C4375   1.291       .  A
O4365      C4376   1.287       .  A
O4366     Zr4371   2.413       .  S
O4366      C4377   1.287       .  A
O4367     Zr4401   2.486       .  S
O4367      C4377   1.301       .  A
O4368     Zr4400   2.489       .  S
O4368      C4376   1.302       .  A
O4369     Zr4371   2.451       .  S
O4369      C4375   1.294   1_556  A
O4370     Zr4371   2.447       .  S
O4370      C4374   1.294       .  A
Zr4371     O4372   2.333       .  S
Zr4371     O4381   2.341       .  S
O4372     Zr4398   2.345   1_556  S
O4372     Zr4401   2.346       .  S
O4373     Zr4400   2.336       .  S
C4376      C4561   1.489       .  S
C4377      C4585   1.486       .  S
H4378      O4379   0.963       .  S
O4379     Zr4400   2.347       .  S
H4380      O4381   0.967       .  S
O4381     Zr4399   2.347       .  S
O4381     Zr4401   2.349       .  S
O4382     Zr4398   2.438       .  S
O4382      C4405   1.292       .  A
O4383     Zr4399   2.441       .  S
O4383      C4406   1.293       .  A
O4384     Zr4400   2.423       .  S
O4384      C4407   1.290       .  A
O4385     Zr4401   2.436       .  S
O4385      C4408   1.293       .  A
O4386     Zr4401   2.437       .  S
O4386      C4409   1.293       .  A
O4387     Zr4400   2.441       .  S
O4387      C4410   1.293       .  A
O4388      C4411   1.289       .  A
O4389     Zr4402   2.400   1_556  S
O4389      C4412   1.286       .  A
O4390     Zr4400   2.473       .  S
O4390      C4411   1.299       .  A
O4391     Zr4401   2.476       .  S
O4391      C4412   1.300       .  A
O4392      C4407   1.297       .  A
O4393      C4410   1.296       .  A
O4394     Zr4399   2.449       .  S
O4394      C4409   1.295       .  A
O4395     Zr4398   2.447   1_556  S
O4395      C4408   1.294       .  A
O4396     Zr4402   2.464       .  S
O4396      C4405   1.297       .  A
O4397     Zr4402   2.449   1_556  S
O4397      C4406   1.294       .  A
Zr4398     O4416   2.343   1_554  S
Zr4399     O4403   2.344       .  S
Zr4400     O4404   2.355       .  S
Zr4400     O4414   2.349       .  S
Zr4401     O4403   2.345       .  S
Zr4401     O4416   2.353       .  S
Zr4402     O4403   2.344   1_554  S
Zr4402     O4416   2.334   1_554  S
C4407      C4433   1.488       .  S
C4408      C4457   1.481       .  S
C4409      C4473   1.485       .  S
C4410      C4417   1.488       .  S
C4411      C4553   1.485       .  S
C4412      C4601   1.480       .  S
H4413      O4414   0.964       .  S
H4415      O4416   0.965       .  S
C4417      C4418   1.407       .  A
C4417      C4422   1.408       .  A
C4418      C4419   1.402       .  A
C4418      H4427   1.083       .  S
C4419      C4420   1.404       .  A
C4419      H4428   1.083       .  S
C4420      C4426   1.413       .  A
C4420      C4421   1.414       .  A
C4421      C4423   1.401       .  A
C4421      C4422   1.408       .  A
C4422      H4429   1.084       .  S
C4423      C4424   1.397       .  A
C4423      H4430   1.084       .  S
C4424      C4425   1.407       .  A
C4424      H4431   1.083       .  S
C4425      C4426   1.412       .  A
C4426      H4432   1.084       .  S
C4433      C4434   1.410       .  A
C4433      C4438   1.407       .  A
C4434      C4435   1.396       .  A
C4434      H4443   1.083       .  S
C4435      C4436   1.400       .  A
C4435      H4444   1.084       .  S
C4436      C4442   1.405       .  A
C4436      C4437   1.414       .  A
C4437      C4439   1.400       .  A
C4437      C4438   1.406       .  A
C4438      H4445   1.084       .  S
C4439      C4440   1.397       .  A
C4439      H4446   1.084       .  S
C4440      C4441   1.410       .  A
C4440      H4447   1.083       .  S
C4441      C4442   1.407       .  A
C4442      H4448   1.084       .  S
C4449      C4450   1.407       .  A
C4449      C4454   1.408       .  A
C4450      C4451   1.395       .  A
C4450      H4459   1.083       .  S
C4451      C4452   1.400       .  A
C4451      H4460   1.084       .  S
C4452      C4458   1.403       .  A
C4452      C4453   1.414       .  A
C4453      C4455   1.402       .  A
C4453      C4454   1.407       .  A
C4454      H4461   1.084       .  S
C4455      C4456   1.398       .  A
C4455      H4462   1.084       .  S
C4456      C4457   1.407       .  A
C4456      H4463   1.083       .  S
C4457      C4458   1.406       .  A
C4458      H4464   1.084       .  S
C4465      C4466   1.407       .  A
C4465      C4470   1.406       .  A
C4466      C4467   1.398       .  A
C4466      H4475   1.083       .  S
C4467      C4468   1.403       .  A
C4467      H4476   1.084       .  S
C4468      C4474   1.405       .  A
C4468      C4469   1.413       .  A
C4469      C4471   1.400       .  A
C4469      C4470   1.401       .  A
C4470      H4477   1.084       .  S
C4471      C4472   1.396       .  A
C4471      H4478   1.084       .  S
C4472      C4473   1.408       .  A
C4472      H4479   1.083       .  S
C4473      C4474   1.409       .  A
C4474      H4480   1.084       .  S
C4481      C4482   1.412       .  A
C4481      C4486   1.403       .  A
C4482      C4483   1.399       .  A
C4482      H4491   1.083       .  S
C4483      C4484   1.400       .  A
C4483      H4492   1.084       .  S
C4484      C4490   1.410       .  A
C4484      C4485   1.416       .  A
C4485      C4487   1.396       .  A
C4485      C4486   1.405       .  A
C4486      H4493   1.084       .  S
C4487      C4488   1.393       .  A
C4487      H4494   1.084       .  S
C4488      C4489   1.412       .  A
C4488      H4495   1.083       .  S
C4489      C4490   1.407       .  A
C4490      H4496   1.084       .  S
C4497      C4498   1.414       .  A
C4497      C4502   1.403       .  A
C4498      C4499   1.395       .  A
C4498      H4507   1.083       .  S
C4499      C4500   1.396       .  A
C4499      H4508   1.084       .  S
C4500      C4506   1.410       .  A
C4500      C4501   1.418       .  A
C4501      C4503   1.395       .  A
C4501      C4502   1.409       .  A
C4502      H4509   1.084       .  S
C4503      C4504   1.392       .  A
C4503      H4510   1.084       .  S
C4504      C4505   1.414       .  A
C4504      H4511   1.083       .  S
C4505      C4506   1.403       .  A
C4506      H4512   1.084       .  S
C4513      C4514   1.411       .  A
C4513      C4518   1.401       .  A
C4514      C4515   1.396       .  A
C4514      H4523   1.083       .  S
C4515      C4516   1.399       .  A
C4515      H4524   1.084       .  S
C4516      C4522   1.411       .  A
C4516      C4517   1.418       .  A
C4517      C4519   1.396       .  A
C4517      C4518   1.408       .  A
C4518      H4525   1.084       .  S
C4519      C4520   1.392       .  A
C4519      H4526   1.084       .  S
C4520      C4521   1.409       .  A
C4520      H4527   1.082       .  S
C4521      C4522   1.405       .  A
C4522      H4528   1.084       .  S
C4529      C4530   1.412       .  A
C4529      C4534   1.403       .  A
C4530      C4531   1.397       .  A
C4530      H4539   1.083       .  S
C4531      C4532   1.398       .  A
C4531      H4540   1.084       .  S
C4532      C4538   1.410       .  A
C4532      C4533   1.416       .  A
C4533      C4535   1.396       .  A
C4533      C4534   1.406       .  A
C4534      H4541   1.084       .  S
C4535      C4536   1.393       .  A
C4535      H4542   1.084       .  S
C4536      C4537   1.414       .  A
C4536      H4543   1.083       .  S
C4537      C4538   1.405       .  A
C4538      H4544   1.084       .  S
C4545      C4546   1.412       .  A
C4545      C4550   1.402       .  A
C4546      C4547   1.397       .  A
C4546      H4555   1.083       .  S
C4547      C4548   1.400       .  A
C4547      H4556   1.084       .  S
C4548      C4554   1.409       .  A
C4548      C4549   1.417       .  A
C4549      C4551   1.398       .  A
C4549      C4550   1.406       .  A
C4550      H4557   1.084       .  S
C4551      C4552   1.395       .  A
C4551      H4558   1.084       .  S
C4552      C4553   1.410       .  A
C4552      H4559   1.083       .  S
C4553      C4554   1.405       .  A
C4554      H4560   1.084       .  S
C4561      C4562   1.412       .  A
C4561      C4566   1.403       .  A
C4562      C4563   1.399       .  A
C4562      H4571   1.083       .  S
C4563      C4564   1.401       .  A
C4563      H4572   1.084       .  S
C4564      C4570   1.412       .  A
C4564      C4565   1.416       .  A
C4565      C4567   1.399       .  A
C4565      C4566   1.409       .  A
C4566      H4573   1.084       .  S
C4567      C4568   1.396       .  A
C4567      H4574   1.084       .  S
C4568      C4569   1.408       .  A
C4568      H4575   1.082       .  S
C4569      C4570   1.409       .  A
C4570      H4576   1.084       .  S
C4577      C4578   1.408       .  A
C4577      C4582   1.407       .  A
C4578      C4579   1.399       .  A
C4578      H4587   1.083       .  S
C4579      C4580   1.401       .  A
C4579      H4588   1.084       .  S
C4580      C4586   1.412       .  A
C4580      C4581   1.417       .  A
C4581      C4583   1.401       .  A
C4581      C4582   1.412       .  A
C4582      H4589   1.084       .  S
C4583      C4584   1.399       .  A
C4583      H4590   1.084       .  S
C4584      C4585   1.409       .  A
C4584      H4591   1.084       .  S
C4585      C4586   1.405       .  A
C4586      H4592   1.084       .  S
C4593      C4594   1.410       .  A
C4593      C4598   1.400       .  A
C4594      C4595   1.392       .  A
C4594      H4603   1.083       .  S
C4595      C4596   1.397       .  A
C4595      H4604   1.084       .  S
C4596      C4602   1.403       .  A
C4596      C4597   1.417       .  A
C4597      C4599   1.397       .  A
C4597      C4598   1.402       .  A
C4598      H4605   1.084       .  S
C4599      C4600   1.394       .  A
C4599      H4606   1.084       .  S
C4600      C4601   1.411       .  A
C4600      H4607   1.083       .  S
C4601      C4602   1.401       .  A
C4602      H4608   1.084       .  S
C4609      C4610   1.406       .  A
C4610      C4611   1.398       .  A
C4610      H4619   1.083       .  S
C4611      C4612   1.401       .  A
C4611      H4620   1.084       .  S
C4612      C4618   1.406       .  A
C4613      C4615   1.403   1_554  A
C4613      C4614   1.408       .  A
C4614      H4621   1.084   1_554  S
C4615      C4616   1.399       .  A
C4615      H4622   1.084       .  S
C4616      H4623   1.083       .  S
C4617      C4618   1.407       .  A
C4618      H4624   1.084       .  S
C4625      C4630   1.411       .  A
C4626      C4627   1.399       .  A
C4626      H4635   1.083       .  S
C4627      C4628   1.403       .  A
C4627      H4636   1.084       .  S
C4628      C4634   1.406       .  A
C4628      C4629   1.413   1_556  A
C4630      H4637   1.084       .  S
C4631      C4632   1.401       .  A
C4631      H4638   1.084       .  S
C4632      C4633   1.410       .  A
C4632      H4639   1.083       .  S
C4634      H4640   1.084       .  S
C4641      C4642   1.408       .  A
C4642      C4643   1.397       .  A
C4642      H4651   1.083       .  S
C4643      C4644   1.401       .  A
C4643      H4652   1.084       .  S
C4644      C4650   1.405       .  A
C4645      C4647   1.402       .  A
C4645      C4646   1.408       .  A
C4646      H4653   1.084       .  S
C4647      C4648   1.398       .  A
C4647      H4654   1.084       .  S
C4648      H4655   1.083       .  S
C4649      C4650   1.407       .  A
C4650      H4656   1.084       .  S
C4657      C4662   1.411       .  A
C4658      C4659   1.398       .  A
C4658      H4667   1.083       .  S
C4659      C4660   1.402       .  A
C4659      H4668   1.084       .  S
C4660      C4666   1.408       .  A
C4661      C4663   1.404       .  A
C4661      C4662   1.408       .  A
C4662      H4669   1.084       .  S
C4663      C4664   1.400       .  A
C4663      H4670   1.084       .  S
C4664      C4665   1.407       .  A
C4664      H4671   1.083       .  S
C4666      H4672   1.084       .  S
C4673      C4678   1.402       .  A
C4674      C4675   1.395       .  A
C4674      H4683   1.083       .  S
C4675      C4676   1.398       .  A
C4675      H4684   1.084       .  S
C4676      C4682   1.405   1_565  A
C4677      C4679   1.399       .  A
C4677      C4678   1.407       .  A
C4678      H4685   1.084       .  S
C4679      C4680   1.395       .  A
C4679      H4686   1.084       .  S
C4680      C4681   1.407       .  A
C4680      H4687   1.083       .  S
C4682      H4688   1.084   1_545  S
C4689      C4690   1.411       .  A
C4690      C4691   1.388       .  A
C4690      H4699   1.083       .  S
C4691      C4692   1.393       .  A
C4691      H4700   1.084       .  S
C4692      C4698   1.399       .  A
C4693      C4695   1.397       .  A
C4693      C4694   1.404       .  A
C4694      H4701   1.084       .  S
C4695      C4696   1.394       .  A
C4695      H4702   1.084       .  S
C4696      H4703   1.083       .  S
C4697      C4698   1.399       .  A
C4698      H4704   1.084       .  S
C4705      C4706   1.407       .  A
C4706      C4707   1.395       .  A
C4706      H4715   1.083       .  S
C4707      C4708   1.399       .  A
C4707      H4716   1.084       .  S
C4708      C4714   1.409       .  A
C4709      C4711   1.403       .  A
C4709      C4710   1.416       .  A
C4710      H4717   1.084       .  S
C4711      C4712   1.404       .  A
C4711      H4718   1.084       .  S
C4712      H4719   1.083       .  S
C4713      C4714   1.404       .  A
C4714      H4720   1.084       .  S
C4721      C4726   1.408       .  A
C4722      C4723   1.400       .  A
C4722      H4731   1.083       .  S
C4723      C4724   1.399       .  A
C4723      H4732   1.084       .  S
C4724      C4730   1.413       .  A
C4725      C4727   1.399       .  A
C4725      C4726   1.413       .  A
C4726      H4733   1.084       .  S
C4727      C4728   1.397       .  A
C4727      H4734   1.083       .  S
C4728      C4729   1.411       .  A
C4728      H4735   1.083       .  S
C4730      H4736   1.084       .  S
C4737      C4742   1.406       .  A
C4738      C4739   1.399       .  A
C4738      H4747   1.083       .  S
C4739      C4740   1.402   1_655  A
C4739      H4748   1.084       .  S
C4740      C4746   1.407   1_455  A
C4741      C4743   1.399       .  A
C4741      C4742   1.405       .  A
C4742      H4749   1.084       .  S
C4743      C4744   1.395       .  A
C4743      H4750   1.084       .  S
C4744      C4745   1.408       .  A
C4744      H4751   1.083       .  S
C4746      H4752   1.084       .  S
C4753      C4754   1.408       .  A
C4754      C4755   1.401       .  A
C4754      H4763   1.083       .  S
C4755      C4756   1.403       .  A
C4755      H4764   1.084       .  S
C4756      C4762   1.409       .  A
C4757      C4759   1.402       .  A
C4757      C4758   1.407       .  A
C4758      H4765   1.084       .  S
C4759      C4760   1.398       .  A
C4759      H4766   1.084       .  S
C4760      H4767   1.083       .  S
C4761      C4762   1.409       .  A
C4762      H4768   1.084       .  S
C4769      C4774   1.408       .  A
C4770      C4771   1.400       .  A
C4770      H4779   1.083       .  S
C4771      C4772   1.403       .  A
C4771      H4780   1.083       .  S
C4772      C4778   1.410       .  A
C4773      C4775   1.401       .  A
C4773      C4774   1.407       .  A
C4774      H4781   1.084       .  S
C4775      C4776   1.398       .  A
C4775      H4782   1.084       .  S
C4776      C4777   1.408       .  A
C4776      H4783   1.083       .  S
C4778      H4784   1.084       .  S
C4785      C4786   1.408       .  A
C4786      C4787   1.397       .  A
C4786      H4795   1.083       .  S
C4787      C4788   1.401       .  A
C4787      H4796   1.084       .  S
C4788      C4794   1.406       .  A
C4789      C4791   1.401       .  A
C4789      C4790   1.405   1_655  A
C4790      H4797   1.084   1_455  S
C4791      C4792   1.397       .  A
C4791      H4798   1.084       .  S
C4792      H4799   1.083       .  S
C4793      C4794   1.408       .  A
C4794      H4800   1.084       .  S
