geometry optimzed in LAMMPS
_audit_creation_date              2020-11-30 
_audit_creation_method            'lammps2cif' 
_symmetry_space_group_name_H-M    'P1' 
_symmetry_Int_Tables_number       1 
_symmetry_cell_setting            triclinic 
loop_ 
_symmetry_equiv_pos_as_xyz 
  x,y,z 
_cell_length_a                    26.29255505461904 
_cell_length_b                    26.44551749283609 
_cell_length_c                    31.698811598410856 
_cell_angle_alpha                 89.29428323840659 
_cell_angle_beta                  89.18817142817112 
_cell_angle_gamma                 89.47381060474588 
loop_ 
_atom_site_label 
_atom_site_type_symbol 
_atom_site_fract_x 
_atom_site_fract_y 
_atom_site_fract_z 
_atom_site_charge 
O1          O  0.36606189  0.48914212  0.42598850    -0.74990
O2          O  0.35415171  0.06730711  0.45478152    -0.53900
C3          C  0.33966402  0.02909958  0.43273979     0.78730
O4          O  0.48540293  0.37662813  0.58087065    -0.59600
O5          O  0.06047885  0.35900119  0.54652321    -0.52620
C6          C  0.02325037  0.34785437  0.57204657     0.70750
O7          O  0.36425681  0.48861850  0.57474432    -0.74150
O8          O  0.35229311  0.06641984  0.54398290    -0.54720
C9          C  0.33753927  0.02810599  0.56684279     0.76750
O10         O  0.48700069  0.37768288  0.42099455    -0.59300
O11         O  0.06196405  0.36055509  0.45440847    -0.52420
C12         C  0.02535188  0.34950506  0.42929629     0.73340
Zr13       Zr  0.44988365  0.45717863  0.43901309     2.54710
O14         O  0.38720666  0.39037078  0.43455950    -0.79860
O15         O  0.45591407  0.46831570  0.36271876    -0.93280
Zr16       Zr  0.44855007  0.45675774  0.56273543     2.64680
O17         O  0.38299689  0.39263328  0.57128045    -0.98240
O18         O  0.45502816  0.46884949  0.63849102    -0.80300
O19         O  0.41389060  0.49169939  0.50069346    -0.83650
O20         O  0.48368698  0.42093194  0.50101516    -2.18360
O21         O  0.11652657  0.99880985  0.40696214    -0.67040
O22         O  0.15167533  0.45180271  0.45867302    -0.51610
C23         C  0.15539057  0.47967834  0.42509573     0.71730
O24         O  0.01932199  0.13820928  0.57758986    -0.59950
O25         O  0.44324511  0.15376248  0.54534528    -0.51930
C26         C  0.48041270  0.16581916  0.56960845     0.73530
O27         O  0.11374129  0.99876167  0.59342710    -0.71350
O28         O  0.15007883  0.45143569  0.54252078    -0.50020
C29         C  0.15294593  0.47919505  0.57559397     0.74910
O30         O  0.02326226  0.13898124  0.42167336    -0.66680
O31         O  0.44650640  0.15490728  0.45416564    -0.53870
C32         C  0.48472287  0.16703556  0.42990069     0.73290
Zr33       Zr  0.05520979  0.05647923  0.43746063     2.77540
O34         O  0.13039620  0.10973770  0.43841563    -0.97430
O35         O  0.04911965  0.06748130  0.36135493    -0.78250
Zr36       Zr  0.05348290  0.05647935  0.56175933     2.70070
O37         O  0.12946235  0.10822450  0.55613185    -0.79490
O38         O  0.04879118  0.07010710  0.63758251    -0.98580
Zr39       Zr  0.42957697  0.08008662  0.49968073     2.21500
Zr40       Zr  0.07391603  0.43374755  0.50062590     2.11130
O41         O  0.09072058  0.02293546  0.49987368    -2.47260
O42         O  0.01948013  0.09192442  0.49935719    -0.79290
O43         O  0.03871876  0.46895687  0.43719046    -0.71480
O44         O  0.46423555  0.04441297  0.56331682    -2.32440
O45         O  0.46593876  0.04478043  0.43651381    -2.28650
O46         O  0.03724343  0.46877459  0.56376349    -0.73240
H47         H  0.47599790  0.38530523  0.50120150     0.78760
H48         H  0.44890120  0.05969966  0.58798785     0.79840
H49         H  0.12669520  0.02986727  0.49989307     0.82070
H50         H  0.45134363  0.06021141  0.41163449     0.79670
H51         H  0.42867257  0.49456032  0.64533306     0.42710
H52         H  0.04182320  0.03631163  0.65002741     0.41680
H53         H  0.12297658  0.13122320  0.53187796     0.41360
H54         H  0.15888279  0.08706518  0.44646036     0.39290
H55         H  0.03873116  0.03399793  0.35103836     0.42420
H56         H  0.42961086  0.49400827  0.35577403     0.37210
H57         H  0.37719220  0.38324646  0.46425977     0.43320
H58         H  0.39299967  0.36521196  0.55176155     0.39740
H59         H  0.13720963  0.11816018  0.40835701     0.44660
H60         H  0.44261937  0.43642586  0.35131707     0.43380
H61         H  0.38778459  0.37807984  0.59990178     0.43520
H62         H  0.08415734  0.07748819  0.64572904     0.43880
C63         C  0.50185473  0.26076028  0.34167122     0.03430
C64         C  0.48565971  0.21789243  0.36448213    -0.12720
C65         C  0.48755990  0.21639416  0.40870731     0.00930
C66         C  0.00705929  0.25786995  0.43023030    -0.11250
C67         C  0.02335589  0.30100127  0.40784669     0.03420
C68         C  0.52010253  0.30225221  0.36373526    -0.10670
H69         H  0.47337797  0.18475234  0.34772713     0.09010
H70         H  0.00886735  0.25684840  0.46425173     0.06540
H71         H  0.52880281  0.33703934  0.34677143     0.06390
C72         C  0.25050920  0.02212353  0.34222902     0.03430
C73         C  0.29173704  0.03630917  0.36686598    -0.12720
C74         C  0.29056630  0.02906791  0.41089385     0.00930
C75         C  0.24734846  0.00666738  0.43017231    -0.11250
C76         C  0.20531813  0.99293124  0.40573933     0.03420
C77         C  0.20777813  0.00055441  0.36187556    -0.10670
H78         H  0.32583492  0.05078086  0.35152828     0.09010
H79         H  0.24661643  0.99973975  0.46382177     0.06540
H80         H  0.17590377  0.98972853  0.34272130     0.06390
C81         C  0.24699444  0.01747294  0.65779233     0.03430
C82         C  0.20406342  0.99763956  0.63859074    -0.12720
C83         C  0.20240150  0.99160537  0.59467477     0.00930
C84         C  0.24500063  0.00591829  0.56983457    -0.11250
C85         C  0.28786473  0.02756001  0.58875251     0.03420
C86         C  0.28828375  0.03314516  0.63271278    -0.10670
H87         H  0.17161053  0.98684956  0.65807388     0.09010
H88         H  0.24491097  0.00014589  0.53616758     0.06540
H89         H  0.32206508  0.04728640  0.64769081     0.06390
C90         C  0.49259940  0.25640602  0.65823986     0.03430
C91         C  0.47619073  0.21489255  0.63515060    -0.12720
C92         C  0.48145178  0.21460544  0.59096804     0.00930
C93         C  0.50310138  0.25653589  0.57003128    -0.11250
C94         C  0.51940149  0.29837503  0.59292311     0.03420
C95         C  0.51446041  0.29765197  0.63698163    -0.10670
H96         H  0.46212396  0.18163368  0.65173233     0.09010
H97         H  0.00689391  0.25674762  0.53605683     0.06540
H98         H  0.52506557  0.33068664  0.65469387     0.06390
C99         C  0.24797245  0.02693459  0.15883147     0.03430
C100        C  0.25758674  0.48349970  0.13477023    -0.12720
C101        C  0.25149422  0.48419316  0.09073528     0.00930
C102        C  0.23231266  0.02832205  0.07082750    -0.11250
C103        C  0.22185135  0.07206508  0.09452535     0.03420
C104        C  0.23118964  0.07100143  0.13805339    -0.10670
H105        H  0.26715104  0.44810854  0.15042910     0.09010
H106        H  0.22523377  0.02841390  0.03731227     0.06540
H107        H  0.22494227  0.10503910  0.15616706     0.06390
O108        O  0.21304504  0.41067108  0.92432351    -0.74990
O109        O  0.29025209  0.42275663  0.95493478    -0.53900
C110        C  0.25232686  0.43712233  0.93173046     0.78730
O111        O  0.10029202  0.28766691  0.07933770    -0.59600
O112        O  0.08653669  0.21270730  0.04608761    -0.52620
C113        C  0.07335260  0.24918383  0.07087768     0.70750
O114        O  0.21237157  0.40854348  0.07704631    -0.74150
O115        O  0.28979183  0.42154834  0.04502386    -0.54720
C116        C  0.25171780  0.43525744  0.06889095     0.76750
O117        O  0.10142692  0.28950767  0.92164245    -0.59300
O118        O  0.08788131  0.21306944  0.95450565    -0.52420
C119        C  0.07465043  0.25035166  0.93018049     0.73340
Zr120      Zr  0.18142469  0.32735872  0.93847426     2.54710
O121        O  0.11272979  0.38950799  0.93487328    -0.79860
O122        O  0.19230885  0.32592310  0.86215887    -0.93280
Zr123      Zr  0.18011585  0.32608934  0.06201886     2.64680
O124        O  0.11396633  0.39109878  0.06623388    -0.98240
O125        O  0.18781935  0.31816963  0.13829781    -0.80300
O126        O  0.21550013  0.36199508  0.00004354    -0.83650
O127        O  0.14586122  0.29170302  0.00039902    -2.18360
O128        O  0.23016788  0.16259868  0.90723071    -0.67040
O129        O  0.18251310  0.12639322  0.95860151    -0.51610
C130        C  0.21101951  0.12362149  0.92526878     0.71730
O131        O  0.36243263  0.25586599  0.08114103    -0.59950
O132        O  0.37912243  0.33045472  0.04637829    -0.51930
C133        C  0.39049828  0.29373619  0.07228199     0.73530
O134        O  0.22541208  0.16053347  0.09252282    -0.71350
O135        O  0.18090354  0.12461244  0.04122860    -0.50020
C136        C  0.20825026  0.12141885  0.07459895     0.74910
O137        O  0.36451991  0.26052505  0.91823890    -0.66680
O138        O  0.38101435  0.33305678  0.95400008    -0.53870
C139        C  0.39277101  0.29768908  0.92745291     0.73290
Zr140      Zr  0.28510033  0.22384775  0.93794328     2.77540
O141        O  0.34220472  0.15100930  0.94358337    -0.97430
O142        O  0.29816498  0.22506087  0.86175556    -0.78250
Zr143      Zr  0.28265944  0.22195580  0.06218367     2.70070
O144        O  0.33770460  0.14753297  0.05877864    -0.79490
O145        O  0.29002854  0.22480697  0.13840791    -0.98580
Zr146      Zr  0.30502589  0.34669635  0.00003094     2.21500
Zr147      Zr  0.16182394  0.20215206  0.00012291     2.11130
O148        O  0.25174082  0.18614132  0.00004317    -2.47260
O149        O  0.31935244  0.25744272  0.00009598    -0.79290
O150        O  0.19651290  0.23928391  0.93660163    -0.71480
O151        O  0.26858722  0.31052189  0.06328175    -2.32440
O152        O  0.27021070  0.31224255  0.93697407    -2.28650
O153        O  0.19438032  0.23777500  0.06339538    -0.73240
H154        H  0.10978642  0.29879565  0.00044113     0.78760
H155        H  0.28319471  0.32506540  0.08810906     0.79840
H156        H  0.25994432  0.15048574  0.00015691     0.82070
H157        H  0.28565071  0.32767038  0.91222740     0.79670
H158        H  0.21394109  0.34309387  0.14584754     0.42710
H159        H  0.25635979  0.23693607  0.14858001     0.41680
H160        H  0.36221468  0.15526272  0.03564068     0.41360
H161        H  0.31988546  0.12107194  0.94380603     0.39290
H162        H  0.26929697  0.24535154  0.85079845     0.42420
H163        H  0.22661784  0.33972238  0.85646206     0.37210
H164        H  0.10777026  0.40063357  0.96436952     0.43320
H165        H  0.08726746  0.38020040  0.04667851     0.39740
H166        H  0.36003833  0.14980242  0.91588733     0.44660
H167        H  0.16888980  0.35278922  0.85195328     0.43380
H168        H  0.09857029  0.38701485  0.09475111     0.43520
H169        H  0.29155515  0.18886676  0.14746962     0.43880
C170        C  0.48205078  0.26767530  0.15939376     0.03430
C171        C  0.02301068  0.24794413  0.13592784    -0.12720
C172        C  0.02368580  0.25050695  0.09188178     0.00930
C173        C  0.48197113  0.27166863  0.07067027    -0.11250
C174        C  0.43978545  0.29040847  0.09337722     0.03420
C175        C  0.44034456  0.28879895  0.13784542    -0.10670
H176        H  0.05618653  0.23312519  0.15203528     0.09010
H177        H  0.48224707  0.27327666  0.03656517     0.06540
H178        H  0.40757731  0.30262695  0.15547419     0.06390
C179        C  0.24524644  0.02933928  0.84076121     0.03430
C180        C  0.25623493  0.48588874  0.86508168    -0.12720
C181        C  0.25220257  0.48636543  0.90938761     0.00930
C182        C  0.23406717  0.03047477  0.92942498    -0.11250
C183        C  0.22367617  0.07456462  0.90548602     0.03420
C184        C  0.23198825  0.07394630  0.86167400    -0.10670
H185        H  0.26526374  0.45060319  0.84949562     0.09010
H186        H  0.22796659  0.03038825  0.96322597     0.06540
H187        H  0.22734677  0.10860387  0.84353926     0.06390
C188        C  0.48538898  0.26464357  0.84165537     0.03430
C189        C  0.02353521  0.24268785  0.86676553    -0.12720
C190        C  0.02501031  0.25153118  0.91008155     0.00930
C191        C  0.48450212  0.27722176  0.92990768    -0.11250
C192        C  0.44293337  0.29451742  0.90644415     0.03420
C193        C  0.44471407  0.29004122  0.86218194    -0.10670
H194        H  0.05407264  0.22073635  0.85268415     0.09010
H195        H  0.48479507  0.28257662  0.96366787     0.06540
H196        H  0.41293108  0.30452081  0.84420224     0.06390
C197        C  0.48958077  0.25636240  0.70489200     0.00140
C198        C  0.03472899  0.26111262  0.72713862    -0.11730
C199        C  0.03445938  0.26429815  0.77108081     0.02380
C200        C  0.48789975  0.26099411  0.79436959     0.00060
C201        C  0.44254669  0.25567979  0.77156993    -0.11670
C202        C  0.44300810  0.25446507  0.72730562     0.02260
H203        H  0.07057057  0.26340876  0.70981964     0.15240
H204        H  0.40635996  0.25284227  0.78815177     0.15240
C205        C  0.39518647  0.25459333  0.70547130     0.36900
C206        C  0.08289674  0.27294158  0.79036091     0.36800
N207        N  0.35693732  0.25547675  0.68784471    -0.43450
N208        N  0.12231993  0.27889613  0.80513249    -0.43440
C209        C  0.24837137  0.02138615  0.70435280     0.00140
C210        C  0.20989614  0.04895122  0.72489103    -0.11730
C211        C  0.20784970  0.05190133  0.76889016     0.02380
C212        C  0.24595881  0.02779347  0.79357349     0.00060
C213        C  0.28465100  0.50027858  0.77267007    -0.11670
C214        C  0.28569041  0.49629624  0.72860375     0.02260
H215        H  0.18067202  0.06761631  0.70635338     0.15240
H216        H  0.31398958  0.48130041  0.79079415     0.15240
C217        C  0.32348329  0.46373308  0.70923374     0.36900
C218        C  0.16466270  0.07807630  0.78736165     0.36800
N219        N  0.35335393  0.43715073  0.69375273    -0.43450
N220        N  0.13019812  0.09951127  0.80189508    -0.43440
C221        C  0.25112039  0.02627940  0.20599812     0.00140
C222        C  0.21266976  0.05127665  0.22936169    -0.11730
C223        C  0.21351283  0.05275405  0.27339585     0.02380
C224        C  0.25229237  0.02714130  0.29551658     0.00060
C225        C  0.29133761  0.50289048  0.27259441    -0.11670
C226        C  0.29138729  0.50260336  0.22827933     0.02260
H227        H  0.18135527  0.06969747  0.21322401     0.15240
H228        H  0.32150962  0.48341282  0.28941983     0.15240
C229        C  0.33383920  0.47872449  0.20681798     0.36900
C230        C  0.17496450  0.08222810  0.29511216     0.36800
N231        N  0.36786775  0.45931798  0.18980080    -0.43450
N232        N  0.14438162  0.10630178  0.31240275    -0.43440
C233        C  0.49731972  0.26318620  0.29497314     0.00140
C234        C  0.45182288  0.24771230  0.27661498    -0.11730
C235        C  0.44570940  0.24901980  0.23281809     0.02380
C236        C  0.48506572  0.26764132  0.20629618     0.00060
C237        C  0.03038357  0.28371615  0.22479159    -0.11670
C238        C  0.03721846  0.28070044  0.26843008     0.02260
H239        H  0.42097175  0.23395682  0.29659766     0.15240
H240        H  0.06118902  0.29777892  0.20490850     0.15240
C241        C  0.08653228  0.29317646  0.28470815     0.36900
C242        C  0.39996910  0.22788666  0.21623971     0.36800
N243        N  0.12612052  0.30300898  0.29766740    -0.43450
N244        N  0.36313919  0.21022272  0.20378836    -0.43440
O245        O  0.36606192  0.98914212  0.42598848    -0.74990
O246        O  0.35415167  0.56730710  0.45478154    -0.53900
C247        C  0.33966399  0.52909958  0.43273981     0.78730
O248        O  0.48540292  0.87662812  0.58087063    -0.59600
O249        O  0.06047888  0.85900118  0.54652319    -0.52620
C250        C  0.02325041  0.84785437  0.57204656     0.70750
O251        O  0.36425682  0.98861850  0.57474430    -0.74150
O252        O  0.35229309  0.56641983  0.54398293    -0.54720
C253        C  0.33753926  0.52810598  0.56684282     0.76750
O254        O  0.48700071  0.87768289  0.42099454    -0.59300
O255        O  0.06196406  0.86055509  0.45440845    -0.52420
C256        C  0.02535188  0.84950505  0.42929627     0.73340
Zr257      Zr  0.44988369  0.95717864  0.43901306     2.54710
O258        O  0.38720670  0.89037080  0.43455941    -0.79860
O259        O  0.45591415  0.96831575  0.36271874    -0.93280
Zr260      Zr  0.44855007  0.95675774  0.56273541     2.64680
O261        O  0.38299688  0.89263327  0.57128039    -0.98240
O262        O  0.45502813  0.96884946  0.63849100    -0.80300
O263        O  0.41389063  0.99169940  0.50069343    -0.83650
O264        O  0.48368700  0.92093194  0.50101514    -2.18360
O265        O  0.11652654  0.49880982  0.40696218    -0.67040
O266        O  0.15167535  0.95180271  0.45867298    -0.51610
C267        C  0.15539060  0.97967835  0.42509568     0.71730
O268        O  0.01932198  0.63820929  0.57758987    -0.59950
O269        O  0.44324509  0.65376249  0.54534529    -0.51930
C270        C  0.48041268  0.66581916  0.56960847     0.73530
O271        O  0.11374130  0.49876173  0.59342713    -0.71350
O272        O  0.15007886  0.95143568  0.54252074    -0.50020
C273        C  0.15294594  0.97919503  0.57559393     0.74910
O274        O  0.02326224  0.63898124  0.42167338    -0.66680
O275        O  0.44650637  0.65490728  0.45416565    -0.53870
C276        C  0.48472283  0.66703556  0.42990070     0.73290
Zr277      Zr  0.05520977  0.55647923  0.43746065     2.77540
O278        O  0.13039620  0.60973769  0.43841565    -0.97430
O279        O  0.04911963  0.56748130  0.36135496    -0.78250
Zr280      Zr  0.05348286  0.55647935  0.56175936     2.70070
O281        O  0.12946229  0.60822451  0.55613192    -0.79490
O282        O  0.04879105  0.57010706  0.63758255    -0.98580
Zr283      Zr  0.42957694  0.58008662  0.49968074     2.21500
Zr284      Zr  0.07391606  0.93374755  0.50062587     2.11130
O285        O  0.09072055  0.52293547  0.49987371    -2.47260
O286        O  0.01948010  0.59192442  0.49935722    -0.79290
O287        O  0.03871877  0.96895686  0.43719044    -0.71480
O288        O  0.46423554  0.54441298  0.56331684    -2.32440
O289        O  0.46593872  0.54478042  0.43651383    -2.28650
O290        O  0.03724347  0.96877459  0.56376346    -0.73240
H291        H  0.47599792  0.88530523  0.50120148     0.78760
H292        H  0.44890120  0.55969967  0.58798786     0.79840
H293        H  0.12669517  0.52986727  0.49989311     0.82070
H294        H  0.45134358  0.56021139  0.41163451     0.79670
H295        H  0.42867257  0.99456032  0.64533304     0.42710
H296        H  0.04182313  0.53631157  0.65002743     0.41680
H297        H  0.12297658  0.63122316  0.53187798     0.41360
H298        H  0.15888278  0.58706517  0.44646042     0.39290
H299        H  0.03873117  0.53399792  0.35103838     0.42420
H300        H  0.42961089  0.99400826  0.35577400     0.37210
H301        H  0.37719227  0.88324641  0.46425968     0.43320
H302        H  0.39299968  0.86521196  0.55176148     0.39740
H303        H  0.13720965  0.61816012  0.40835702     0.44660
H304        H  0.44261953  0.93642588  0.35131703     0.43380
H305        H  0.38778457  0.87807983  0.59990172     0.43520
H306        H  0.08415719  0.57748820  0.64572909     0.43880
C307        C  0.50185471  0.76076026  0.34167122     0.03430
C308        C  0.48565968  0.71789243  0.36448213    -0.12720
C309        C  0.48755987  0.71639416  0.40870732     0.00930
C310        C  0.00705927  0.75786995  0.43023030    -0.11250
C311        C  0.02335588  0.80100125  0.40784668     0.03420
C312        C  0.52010252  0.80225219  0.36373526    -0.10670
H313        H  0.47337793  0.68475234  0.34772714     0.09010
H314        H  0.00886734  0.75684840  0.46425173     0.06540
H315        H  0.52880280  0.83703932  0.34677143     0.06390
C316        C  0.25050915  0.52212351  0.34222905     0.03430
C317        C  0.29173700  0.53630916  0.36686600    -0.12720
C318        C  0.29056627  0.52906790  0.41089388     0.00930
C319        C  0.24734843  0.50666739  0.43017234    -0.11250
C320        C  0.20531810  0.49293124  0.40573937     0.03420
C321        C  0.20777809  0.50055439  0.36187559    -0.10670
H322        H  0.32583488  0.55078084  0.35152830     0.09010
H323        H  0.24661640  0.49973977  0.46382181     0.06540
H324        H  0.17590372  0.48972850  0.34272135     0.06390
C325        C  0.24699444  0.51747290  0.65779237     0.03430
C326        C  0.20406342  0.49763952  0.63859077    -0.12720
C327        C  0.20240150  0.49160535  0.59467481     0.00930
C328        C  0.24500062  0.50591828  0.56983460    -0.11250
C329        C  0.28786472  0.52755999  0.58875255     0.03420
C330        C  0.28828375  0.53314514  0.63271282    -0.10670
H331        H  0.17161053  0.48684952  0.65807391     0.09010
H332        H  0.24491095  0.50014590  0.53616761     0.06540
H333        H  0.32206508  0.54728637  0.64769085     0.06390
C334        C  0.49259940  0.75640603  0.65823987     0.03430
C335        C  0.47619072  0.71489256  0.63515061    -0.12720
C336        C  0.48145176  0.71460544  0.59096805     0.00930
C337        C  0.50310136  0.75653589  0.57003128    -0.11250
C338        C  0.51940148  0.79837503  0.59292311     0.03420
C339        C  0.51446041  0.79765197  0.63698163    -0.10670
H340        H  0.46212395  0.68163369  0.65173235     0.09010
H341        H  0.00689392  0.75674762  0.53605682     0.06540
H342        H  0.52506557  0.83068664  0.65469387     0.06390
C343        C  0.24797235  0.52693448  0.15883150     0.03430
C344        C  0.25758683  0.98349980  0.13477020    -0.12720
C345        C  0.25149427  0.98419325  0.09073525     0.00930
C346        C  0.23231264  0.52832198  0.07082752    -0.11250
C347        C  0.22185131  0.57206500  0.09452538     0.03420
C348        C  0.23118955  0.57100133  0.13805342    -0.10670
H349        H  0.26715114  0.94810864  0.15042907     0.09010
H350        H  0.22523381  0.52841385  0.03731228     0.06540
H351        H  0.22494218  0.60503899  0.15616710     0.06390
O352        O  0.21304508  0.91067111  0.92432348    -0.74990
O353        O  0.29025213  0.92275668  0.95493475    -0.53900
C354        C  0.25232689  0.93712237  0.93173043     0.78730
O355        O  0.10029206  0.78766699  0.07933767    -0.59600
O356        O  0.08653676  0.71270734  0.04608762    -0.52620
C357        C  0.07335265  0.74918388  0.07087767     0.70750
O358        O  0.21237161  0.90854357  0.07704628    -0.74150
O359        O  0.28979188  0.92154842  0.04502385    -0.54720
C360        C  0.25171784  0.93525752  0.06889093     0.76750
O361        O  0.10142699  0.78950768  0.92164243    -0.59300
O362        O  0.08788138  0.71306946  0.95450566    -0.52420
C363        C  0.07465050  0.75035168  0.93018048     0.73340
Zr364      Zr  0.18142475  0.82735875  0.93847423     2.54710
O365        O  0.11272984  0.88950799  0.93487325    -0.79860
O366        O  0.19230892  0.82592312  0.86215884    -0.93280
Zr367      Zr  0.18011587  0.82608943  0.06201883     2.64680
O368        O  0.11396633  0.89109886  0.06623374    -0.98240
O369        O  0.18781928  0.81816982  0.13829779    -0.80300
O370        O  0.21550018  0.86199514  0.00004350    -0.83650
O371        O  0.14586127  0.79170306  0.00039900    -2.18360
O372        O  0.23016807  0.66259862  0.90723074    -0.67040
O373        O  0.18251318  0.62639325  0.95860153    -0.51610
C374        C  0.21101961  0.62362148  0.92526881     0.71730
O375        O  0.36243269  0.75586605  0.08114103    -0.59950
O376        O  0.37912248  0.83045479  0.04637828    -0.51930
C377        C  0.39049834  0.79373626  0.07228198     0.73530
O378        O  0.22541241  0.66053334  0.09252285    -0.71350
O379        O  0.18090365  0.62461249  0.04122864    -0.50020
C380        C  0.20825039  0.62141881  0.07459897     0.74910
O381        O  0.36451999  0.76052506  0.91823895    -0.66680
O382        O  0.38101440  0.83305684  0.95400008    -0.53870
C383        C  0.39277108  0.79768911  0.92745293     0.73290
Zr384      Zr  0.28510040  0.72384780  0.93794331     2.77540
O385        O  0.34220482  0.65100937  0.94358338    -0.97430
O386        O  0.29816500  0.72506099  0.86175558    -0.78250
Zr387      Zr  0.28265947  0.72195592  0.06218370     2.70070
O388        O  0.33770473  0.64753315  0.05877878    -0.79490
O389        O  0.29002837  0.72480738  0.13840794    -0.98580
Zr390      Zr  0.30502594  0.84669642  0.00003093     2.21500
Zr391      Zr  0.16182401  0.70215211  0.00012293     2.11130
O392        O  0.25174088  0.68614140  0.00004321    -2.47260
O393        O  0.31935249  0.75744279  0.00009600    -0.79290
O394        O  0.19651297  0.73928394  0.93660164    -0.71480
O395        O  0.26858725  0.81052200  0.06328174    -2.32440
O396        O  0.27021076  0.81224259  0.93697407    -2.28650
O397        O  0.19438036  0.73777509  0.06339539    -0.73240
H398        H  0.10978648  0.79879568  0.00044110     0.78760
H399        H  0.28319473  0.82506552  0.08810905     0.79840
H400        H  0.25994440  0.65048582  0.00015695     0.82070
H401        H  0.28565078  0.82767041  0.91222739     0.79670
H402        H  0.21394112  0.84309396  0.14584751     0.42710
H403        H  0.25635959  0.73693648  0.14857996     0.41680
H404        H  0.36221467  0.65526280  0.03564069     0.41360
H405        H  0.31988555  0.62107201  0.94380614     0.39290
H406        H  0.26929686  0.74535148  0.85079848     0.42420
H407        H  0.22661793  0.83972235  0.85646205     0.37210
H408        H  0.10777034  0.90063363  0.96436947     0.43320
H409        H  0.08726747  0.88020043  0.04667838     0.39740
H410        H  0.36003833  0.64980242  0.91588731     0.44660
H411        H  0.16888991  0.85278927  0.85195326     0.43380
H412        H  0.09857029  0.88701499  0.09475098     0.43520
H413        H  0.29155498  0.68886720  0.14746975     0.43880
C414        C  0.48205082  0.76767532  0.15939375     0.03430
C415        C  0.02301073  0.74794415  0.13592783    -0.12720
C416        C  0.02368585  0.75050700  0.09188176     0.00930
C417        C  0.48197119  0.77166869  0.07067027    -0.11250
C418        C  0.43978550  0.79040853  0.09337722     0.03420
C419        C  0.44034461  0.78879898  0.13784542    -0.10670
H420        H  0.05618658  0.73312520  0.15203526     0.09010
H421        H  0.48224713  0.77327674  0.03656516     0.06540
H422        H  0.40757735  0.80262697  0.15547418     0.06390
C423        C  0.24524642  0.52933923  0.84076124     0.03430
C424        C  0.25623496  0.98588879  0.86508165    -0.12720
C425        C  0.25220259  0.98636547  0.90938758     0.00930
C426        C  0.23406718  0.53047474  0.92942501    -0.11250
C427        C  0.22367619  0.57456458  0.90548605     0.03420
C428        C  0.23198825  0.57394626  0.86167403    -0.10670
H429        H  0.26526378  0.95060324  0.84949558     0.09010
H430        H  0.22796661  0.53038823  0.96322601     0.06540
H431        H  0.22734678  0.60860383  0.84353929     0.06390
C432        C  0.48538903  0.76464359  0.84165538     0.03430
C433        C  0.02353526  0.74268788  0.86676552    -0.12720
C434        C  0.02501037  0.75153119  0.91008155     0.00930
C435        C  0.48450219  0.77722178  0.92990769    -0.11250
C436        C  0.44293344  0.79451744  0.90644416     0.03420
C437        C  0.44471413  0.79004124  0.86218195    -0.10670
H438        H  0.05407270  0.72073639  0.85268413     0.09010
H439        H  0.48479515  0.78257664  0.96366788     0.06540
H440        H  0.41293113  0.80452083  0.84420226     0.06390
C441        C  0.48958078  0.75636241  0.70489201     0.00140
C442        C  0.03472901  0.76111269  0.72713862    -0.11730
C443        C  0.03445941  0.76429821  0.77108081     0.02380
C444        C  0.48789978  0.76099413  0.79436960     0.00060
C445        C  0.44254673  0.75567978  0.77156995    -0.11670
C446        C  0.44300812  0.75446505  0.72730564     0.02260
H447        H  0.07057059  0.76340885  0.70981964     0.15240
H448        H  0.40636000  0.75284224  0.78815180     0.15240
C449        C  0.39518648  0.75459326  0.70547133     0.36900
C450        C  0.08289676  0.77294167  0.79036090     0.36800
N451        N  0.35693732  0.75547664  0.68784475    -0.43450
N452        N  0.12231995  0.77889625  0.80513248    -0.43440
C453        C  0.24837137  0.52138612  0.70435284     0.00140
C454        C  0.20989614  0.54895118  0.72489107    -0.11730
C455        C  0.20784970  0.55190129  0.76889019     0.02380
C456        C  0.24595879  0.52779343  0.79357353     0.00060
C457        C  0.28465101  0.00027863  0.77267004    -0.11670
C458        C  0.28569042  0.99629629  0.72860371     0.02260
H459        H  0.18067203  0.56761627  0.70635341     0.15240
H460        H  0.31398959  0.98130046  0.79079411     0.15240
C461        C  0.32348329  0.96373312  0.70923370     0.36900
C462        C  0.16466270  0.57807626  0.78736168     0.36800
N463        N  0.35335393  0.93715076  0.69375270    -0.43450
N464        N  0.13019812  0.59951124  0.80189511    -0.43440
C465        C  0.25112029  0.52627930  0.20599816     0.00140
C466        C  0.21266967  0.55127655  0.22936172    -0.11730
C467        C  0.21351276  0.55275398  0.27339588     0.02380
C468        C  0.25229231  0.52714126  0.29551661     0.00060
C469        C  0.29133768  0.00289054  0.27259438    -0.11670
C470        C  0.29138738  0.00260344  0.22827930     0.02260
H471        H  0.18135517  0.56969736  0.21322405     0.15240
H472        H  0.32150968  0.98341286  0.28941980     0.15240
C473        C  0.33383928  0.97872457  0.20681795     0.36900
C474        C  0.17496444  0.58222804  0.29511218     0.36800
N475        N  0.36786784  0.95931807  0.18980077    -0.43450
N476        N  0.14438156  0.60630174  0.31240277    -0.43440
C477        C  0.49731971  0.76318617  0.29497313     0.00140
C478        C  0.45182289  0.74771225  0.27661496    -0.11730
C479        C  0.44570943  0.74901976  0.23281807     0.02380
C480        C  0.48506575  0.76764131  0.20629617     0.00060
C481        C  0.03038359  0.78371614  0.22479159    -0.11670
C482        C  0.03721847  0.78070042  0.26843008     0.02260
H483        H  0.42097176  0.73395676  0.29659763     0.15240
H484        H  0.06118904  0.79777894  0.20490851     0.15240
C485        C  0.08653227  0.79317648  0.28470816     0.36900
C486        C  0.39996916  0.72788659  0.21623966     0.36800
N487        N  0.12612050  0.80300902  0.29766742    -0.43450
N488        N  0.36313928  0.71022262  0.20378828    -0.43440
O489        O  0.86606188  0.48914214  0.42598849    -0.74990
O490        O  0.85415167  0.06730712  0.45478153    -0.53900
C491        C  0.83966399  0.02909960  0.43273980     0.78730
O492        O  0.98540289  0.37662814  0.58087064    -0.59600
O493        O  0.56047888  0.35900116  0.54652320    -0.52620
C494        C  0.52325040  0.34785435  0.57204657     0.70750
O495        O  0.86425677  0.48861852  0.57474431    -0.74150
O496        O  0.85229308  0.06641985  0.54398291    -0.54720
C497        C  0.83753925  0.02810599  0.56684280     0.76750
O498        O  0.98700068  0.37768291  0.42099455    -0.59300
O499        O  0.56196406  0.36055507  0.45440846    -0.52420
C500        C  0.52535189  0.34950503  0.42929629     0.73340
Zr501      Zr  0.94988364  0.45717866  0.43901308     2.54710
O502        O  0.88720666  0.39037081  0.43455948    -0.79860
O503        O  0.95591408  0.46831574  0.36271875    -0.93280
Zr504      Zr  0.94855003  0.45675776  0.56273543     2.64680
O505        O  0.88299684  0.39263329  0.57128041    -0.98240
O506        O  0.95502809  0.46884948  0.63849102    -0.80300
O507        O  0.91389058  0.49169942  0.50069345    -0.83650
O508        O  0.98368696  0.42093196  0.50101516    -2.18360
O509        O  0.61652652  0.99880970  0.40696217    -0.67040
O510        O  0.65167534  0.45180268  0.45867301    -0.51610
C511        C  0.65539057  0.47967831  0.42509571     0.71730
O512        O  0.51932201  0.13820925  0.57758987    -0.59950
O513        O  0.94324508  0.15376250  0.54534528    -0.51930
C514        C  0.98041268  0.16581918  0.56960845     0.73530
O515        O  0.61374128  0.99876161  0.59342712    -0.71350
O516        O  0.65007886  0.45143565  0.54252075    -0.50020
C517        C  0.65294591  0.47919500  0.57559395     0.74910
O518        O  0.52326229  0.13898121  0.42167336    -0.66680
O519        O  0.94650637  0.15490731  0.45416564    -0.53870
C520        C  0.98472284  0.16703559  0.42990069     0.73290
Zr521      Zr  0.55520983  0.05647921  0.43746064     2.77540
O522        O  0.63039628  0.10973764  0.43841567    -0.97430
O523        O  0.54911979  0.06748133  0.36135495    -0.78250
Zr524      Zr  0.55348292  0.05647932  0.56175935     2.70070
O525        O  0.62946237  0.10822445  0.55613188    -0.79490
O526        O  0.54879119  0.07010708  0.63758253    -0.98580
Zr527      Zr  0.92957694  0.08008664  0.49968073     2.21500
Zr528      Zr  0.57391605  0.43374752  0.50062589     2.11130
O529        O  0.59072061  0.02293543  0.49987370    -2.47260
O530        O  0.51948016  0.09192439  0.49935721    -0.79290
O531        O  0.53871877  0.46895684  0.43719045    -0.71480
O532        O  0.96423553  0.04441300  0.56331682    -2.32440
O533        O  0.96593872  0.04478044  0.43651381    -2.28650
O534        O  0.53724347  0.46877457  0.56376348    -0.73240
H535        H  0.97599788  0.38530525  0.50120150     0.78760
H536        H  0.94890119  0.05969968  0.58798785     0.79840
H537        H  0.62669523  0.02986723  0.49989310     0.82070
H538        H  0.95134358  0.06021142  0.41163449     0.79670
H539        H  0.92867253  0.49456034  0.64533306     0.42710
H540        H  0.54182319  0.03631161  0.65002743     0.41680
H541        H  0.62297662  0.13122316  0.53187799     0.41360
H542        H  0.65888286  0.08706510  0.44646040     0.39290
H543        H  0.53873115  0.03399802  0.35103836     0.42420
H544        H  0.92961086  0.49400829  0.35577402     0.37210
H545        H  0.87719220  0.38324647  0.46425974     0.43320
H546        H  0.89299964  0.36521197  0.55176151     0.39740
H547        H  0.63720971  0.11816013  0.40835706     0.44660
H548        H  0.94261939  0.43642589  0.35131706     0.43380
H549        H  0.88778454  0.37807984  0.59990175     0.43520
H550        H  0.58415735  0.07748814  0.64572906     0.43880
C551        C  0.00185472  0.26076030  0.34167123     0.03430
C552        C  0.98565968  0.21789246  0.36448213    -0.12720
C553        C  0.98755987  0.21639420  0.40870732     0.00930
C554        C  0.50705931  0.25786993  0.43023030    -0.11250
C555        C  0.52335590  0.30100124  0.40784668     0.03420
C556        C  0.02010252  0.30225223  0.36373526    -0.10670
H557        H  0.97337793  0.18475238  0.34772714     0.09010
H558        H  0.50886737  0.25684838  0.46425173     0.06540
H559        H  0.02880281  0.33703936  0.34677144     0.06390
C560        C  0.75050914  0.02212357  0.34222904     0.03430
C561        C  0.79173699  0.03630921  0.36686600    -0.12720
C562        C  0.79056626  0.02906792  0.41089387     0.00930
C563        C  0.74734843  0.00666738  0.43017232    -0.11250
C564        C  0.70531810  0.99293125  0.40573934     0.03420
C565        C  0.70777808  0.00055445  0.36187558    -0.10670
H566        H  0.82583487  0.05078090  0.35152830     0.09010
H567        H  0.74661641  0.99973973  0.46382179     0.06540
H568        H  0.67590371  0.98972857  0.34272132     0.06390
C569        C  0.74699444  0.01747294  0.65779235     0.03430
C570        C  0.70406342  0.99763954  0.63859075    -0.12720
C571        C  0.70240150  0.99160536  0.59467479     0.00930
C572        C  0.74500062  0.00591828  0.56983458    -0.11250
C573        C  0.78786472  0.02756001  0.58875252     0.03420
C574        C  0.78828374  0.03314517  0.63271279    -0.10670
H575        H  0.67161053  0.98684955  0.65807390     0.09010
H576        H  0.74491096  0.00014588  0.53616759     0.06540
H577        H  0.82206507  0.04728641  0.64769082     0.06390
C578        C  0.99259938  0.25640603  0.65823986     0.03430
C579        C  0.97619071  0.21489257  0.63515060    -0.12720
C580        C  0.98145175  0.21460546  0.59096804     0.00930
C581        C  0.00310135  0.25653592  0.57003128    -0.11250
C582        C  0.01940146  0.29837505  0.59292311     0.03420
C583        C  0.01446039  0.29765198  0.63698163    -0.10670
H584        H  0.96212394  0.18163369  0.65173233     0.09010
H585        H  0.50689394  0.25674759  0.53605683     0.06540
H586        H  0.02506555  0.33068665  0.65469388     0.06390
C587        C  0.74797240  0.02693458  0.15883149     0.03430
C588        C  0.75758675  0.48349971  0.13477022    -0.12720
C589        C  0.75149422  0.48419317  0.09073527     0.00930
C590        C  0.73231265  0.02832205  0.07082751    -0.11250
C591        C  0.72185133  0.07206507  0.09452536     0.03420
C592        C  0.73118960  0.07100142  0.13805340    -0.10670
H593        H  0.76715105  0.44810855  0.15042909     0.09010
H594        H  0.72523379  0.02841390  0.03731228     0.06540
H595        H  0.72494222  0.10503909  0.15616708     0.06390
O596        O  0.71304504  0.41067108  0.92432350    -0.74990
O597        O  0.79025209  0.42275663  0.95493477    -0.53900
C598        C  0.75232685  0.43712233  0.93173044     0.78730
O599        O  0.60029202  0.28766693  0.07933769    -0.59600
O600        O  0.58653670  0.21270731  0.04608761    -0.52620
C601        C  0.57335260  0.24918383  0.07087768     0.70750
O602        O  0.71237157  0.40854350  0.07704630    -0.74150
O603        O  0.78979183  0.42154835  0.04502385    -0.54720
C604        C  0.75171780  0.43525745  0.06889094     0.76750
O605        O  0.60142692  0.28950767  0.92164245    -0.59300
O606        O  0.58788131  0.21306944  0.95450565    -0.52420
C607        C  0.57465044  0.25035166  0.93018049     0.73340
Zr608      Zr  0.68142469  0.32735872  0.93847425     2.54710
O609        O  0.61272979  0.38950798  0.93487327    -0.79860
O610        O  0.69230885  0.32592310  0.86215886    -0.93280
Zr611      Zr  0.68011584  0.32608936  0.06201885     2.64680
O612        O  0.61396632  0.39109880  0.06623385    -0.98240
O613        O  0.68781933  0.31816967  0.13829780    -0.80300
O614        O  0.71550013  0.36199509  0.00004352    -0.83650
O615        O  0.64586122  0.29170302  0.00039901    -2.18360
O616        O  0.73016787  0.16259869  0.90723072    -0.67040
O617        O  0.68251310  0.12639322  0.95860152    -0.51610
C618        C  0.71101951  0.12362150  0.92526879     0.71730
O619        O  0.86243263  0.25586600  0.08114103    -0.59950
O620        O  0.87912243  0.33045474  0.04637828    -0.51930
C621        C  0.89049828  0.29373621  0.07228199     0.73530
O622        O  0.72541214  0.16053345  0.09252283    -0.71350
O623        O  0.68090355  0.12461245  0.04122861    -0.50020
C624        C  0.70825028  0.12141885  0.07459895     0.74910
O625        O  0.86451991  0.26052506  0.91823890    -0.66680
O626        O  0.88101435  0.33305679  0.95400008    -0.53870
C627        C  0.89277101  0.29768909  0.92745290     0.73290
Zr628      Zr  0.78510034  0.22384775  0.93794329     2.77540
O629        O  0.84220473  0.15100930  0.94358338    -0.97430
O630        O  0.79816500  0.22506085  0.86175556    -0.78250
Zr631      Zr  0.78265944  0.22195582  0.06218368     2.70070
O632        O  0.83770462  0.14753300  0.05877866    -0.79490
O633        O  0.79002850  0.22480705  0.13840791    -0.98580
Zr634      Zr  0.80502589  0.34669636  0.00003094     2.21500
Zr635      Zr  0.66182395  0.20215207  0.00012292     2.11130
O636        O  0.75174083  0.18614133  0.00004318    -2.47260
O637        O  0.81935244  0.25744273  0.00009598    -0.79290
O638        O  0.69651290  0.23928391  0.93660163    -0.71480
O639        O  0.76858722  0.31052191  0.06328175    -2.32440
O640        O  0.77021070  0.31224255  0.93697407    -2.28650
O641        O  0.69438032  0.23777502  0.06339538    -0.73240
H642        H  0.60978643  0.29879565  0.00044112     0.78760
H643        H  0.78319471  0.32506542  0.08810906     0.79840
H644        H  0.75994433  0.15048575  0.00015692     0.82070
H645        H  0.78565072  0.32767038  0.91222739     0.79670
H646        H  0.71394109  0.34309389  0.14584753     0.42710
H647        H  0.75635975  0.23693613  0.14858000     0.41680
H648        H  0.86221468  0.15526274  0.03564069     0.41360
H649        H  0.81988546  0.12107195  0.94380604     0.39290
H650        H  0.76929699  0.24535152  0.85079844     0.42420
H651        H  0.72661785  0.33972235  0.85646205     0.37210
H652        H  0.60777027  0.40063358  0.96436950     0.43320
H653        H  0.58726746  0.38020041  0.04667848     0.39740
H654        H  0.86003834  0.14980242  0.91588735     0.44660
H655        H  0.66888982  0.35278922  0.85195327     0.43380
H656        H  0.59857028  0.38701488  0.09475108     0.43520
H657        H  0.79155512  0.18886684  0.14746964     0.43880
C658        C  0.98205078  0.26767532  0.15939376     0.03430
C659        C  0.52301069  0.24794413  0.13592784    -0.12720
C660        C  0.52368580  0.25050695  0.09188177     0.00930
C661        C  0.98197113  0.27166863  0.07067027    -0.11250
C662        C  0.93978545  0.29040848  0.09337722     0.03420
C663        C  0.94034456  0.28879896  0.13784542    -0.10670
H664        H  0.55618654  0.23312519  0.15203528     0.09010
H665        H  0.98224707  0.27327666  0.03656517     0.06540
H666        H  0.90757731  0.30262697  0.15547418     0.06390
C667        C  0.74524646  0.02933929  0.84076122     0.03430
C668        C  0.75623490  0.48588875  0.86508166    -0.12720
C669        C  0.75220256  0.48636543  0.90938759     0.00930
C670        C  0.73406718  0.03047478  0.92942499    -0.11250
C671        C  0.72367619  0.07456462  0.90548603     0.03420
C672        C  0.73198827  0.07394631  0.86167401    -0.10670
H673        H  0.76526370  0.45060320  0.84949559     0.09010
H674        H  0.72796659  0.03038826  0.96322598     0.06540
H675        H  0.72734680  0.10860388  0.84353927     0.06390
C676        C  0.98538898  0.26464358  0.84165537     0.03430
C677        C  0.52353521  0.24268785  0.86676553    -0.12720
C678        C  0.52501031  0.25153117  0.91008155     0.00930
C679        C  0.98450212  0.27722177  0.92990768    -0.11250
C680        C  0.94293338  0.29451743  0.90644415     0.03420
C681        C  0.94471407  0.29004123  0.86218194    -0.10670
H682        H  0.55407265  0.22073635  0.85268415     0.09010
H683        H  0.98479507  0.28257663  0.96366787     0.06540
H684        H  0.91293108  0.30452082  0.84420224     0.06390
C685        C  0.98958075  0.25636241  0.70489200     0.00140
C686        C  0.53472900  0.26111262  0.72713862    -0.11730
C687        C  0.53445939  0.26429814  0.77108081     0.02380
C688        C  0.98789974  0.26099411  0.79436959     0.00060
C689        C  0.94254669  0.25567980  0.77156993    -0.11670
C690        C  0.94300809  0.25446508  0.72730562     0.02260
H691        H  0.57057059  0.26340875  0.70981965     0.15240
H692        H  0.90635996  0.25284228  0.78815177     0.15240
C693        C  0.89518646  0.25459335  0.70547130     0.36900
C694        C  0.58289674  0.27294158  0.79036091     0.36800
N695        N  0.85693730  0.25547677  0.68784472    -0.43450
N696        N  0.62231993  0.27889614  0.80513249    -0.43440
C697        C  0.74837137  0.02138615  0.70435282     0.00140
C698        C  0.70989614  0.04895122  0.72489105    -0.11730
C699        C  0.70784971  0.05190133  0.76889017     0.02380
C700        C  0.74595882  0.02779348  0.79357351     0.00060
C701        C  0.78465096  0.50027860  0.77267005    -0.11670
C702        C  0.78569036  0.49629628  0.72860372     0.02260
H703        H  0.68067203  0.06761630  0.70635340     0.15240
H704        H  0.81398953  0.48130042  0.79079412     0.15240
C705        C  0.82348323  0.46373311  0.70923371     0.36900
C706        C  0.66466272  0.07807630  0.78736167     0.36800
N707        N  0.85335387  0.43715076  0.69375269    -0.43450
N708        N  0.63019814  0.09951127  0.80189510    -0.43440
C709        C  0.75112033  0.02627940  0.20599814     0.00140
C710        C  0.71266971  0.05127666  0.22936170    -0.11730
C711        C  0.71351278  0.05275407  0.27339586     0.02380
C712        C  0.75229232  0.02714133  0.29551660     0.00060
C713        C  0.79133762  0.50289049  0.27259440    -0.11670
C714        C  0.79138730  0.50260337  0.22827933     0.02260
H715        H  0.68135522  0.06969748  0.21322402     0.15240
H716        H  0.82150963  0.48341283  0.28941983     0.15240
C717        C  0.83383921  0.47872450  0.20681798     0.36900
C718        C  0.67496447  0.08222815  0.29511216     0.36800
N719        N  0.86786777  0.45931800  0.18980079    -0.43450
N720        N  0.64438160  0.10630185  0.31240275    -0.43440
C721        C  0.99731970  0.26318622  0.29497314     0.00140
C722        C  0.95182286  0.24771233  0.27661499    -0.11730
C723        C  0.94570939  0.24901983  0.23281809     0.02380
C724        C  0.98506572  0.26764134  0.20629618     0.00060
C725        C  0.53038357  0.28371614  0.22479159    -0.11670
C726        C  0.53721847  0.28070042  0.26843007     0.02260
H727        H  0.92097172  0.23395686  0.29659766     0.15240
H728        H  0.56118902  0.29777893  0.20490849     0.15240
C729        C  0.58653228  0.29317646  0.28470814     0.36900
C730        C  0.89996909  0.22788670  0.21623971     0.36800
N731        N  0.62612052  0.30300899  0.29766739    -0.43450
N732        N  0.86313917  0.21022277  0.20378836    -0.43440
O733        O  0.86606188  0.98914213  0.42598849    -0.74990
O734        O  0.85415165  0.56730712  0.45478154    -0.53900
C735        C  0.83966398  0.52909960  0.43273980     0.78730
O736        O  0.98540293  0.87662815  0.58087063    -0.59600
O737        O  0.56047888  0.85900115  0.54652320    -0.52620
C738        C  0.52325040  0.84785434  0.57204657     0.70750
O739        O  0.86425681  0.98861851  0.57474430    -0.74150
O740        O  0.85229306  0.56641986  0.54398292    -0.54720
C741        C  0.83753922  0.52810601  0.56684281     0.76750
O742        O  0.98700068  0.87768290  0.42099454    -0.59300
O743        O  0.56196407  0.86055505  0.45440846    -0.52420
C744        C  0.52535190  0.84950502  0.42929628     0.73340
Zr745      Zr  0.94988365  0.95717866  0.43901307     2.54710
O746        O  0.88720667  0.89037081  0.43455945    -0.79860
O747        O  0.95591408  0.96831574  0.36271874    -0.93280
Zr748      Zr  0.94855007  0.95675776  0.56273541     2.64680
O749        O  0.88299689  0.89263328  0.57128041    -0.98240
O750        O  0.95502814  0.96884950  0.63849100    -0.80300
O751        O  0.91389060  0.99169941  0.50069344    -0.83650
O752        O  0.98368698  0.92093196  0.50101514    -2.18360
O753        O  0.61652653  0.49880977  0.40696217    -0.67040
O754        O  0.65167537  0.95180267  0.45867301    -0.51610
C755        C  0.65539058  0.97967829  0.42509570     0.71730
O756        O  0.51932199  0.63820925  0.57758989    -0.59950
O757        O  0.94324507  0.65376251  0.54534529    -0.51930
C758        C  0.98041266  0.66581919  0.56960846     0.73530
O759        O  0.61374123  0.49876157  0.59342712    -0.71350
O760        O  0.65007888  0.95143564  0.54252076    -0.50020
C761        C  0.65294594  0.97919499  0.57559395     0.74910
O762        O  0.52326225  0.63898121  0.42167337    -0.66680
O763        O  0.94650635  0.65490730  0.45416564    -0.53870
C764        C  0.98472282  0.66703558  0.42990070     0.73290
Zr765      Zr  0.55520979  0.55647921  0.43746064     2.77540
O766        O  0.63039622  0.60973766  0.43841562    -0.97430
O767        O  0.54911965  0.56748127  0.36135495    -0.78250
Zr768      Zr  0.55348291  0.55647933  0.56175935     2.70070
O769        O  0.62946237  0.60822445  0.55613185    -0.79490
O770        O  0.54879125  0.57010714  0.63758253    -0.98580
Zr771      Zr  0.92957691  0.58008664  0.49968074     2.21500
Zr772      Zr  0.57391607  0.93374751  0.50062589     2.11130
O773        O  0.59072058  0.52293544  0.49987369    -2.47260
O774        O  0.51948013  0.59192439  0.49935721    -0.79290
O775        O  0.53871881  0.96895684  0.43719045    -0.71480
O776        O  0.96423549  0.54441300  0.56331684    -2.32440
O777        O  0.96593870  0.54478044  0.43651383    -2.28650
O778        O  0.53724347  0.96877456  0.56376347    -0.73240
H779        H  0.97599791  0.88530525  0.50120148     0.78760
H780        H  0.94890114  0.55969968  0.58798786     0.79840
H781        H  0.62669520  0.52986724  0.49989309     0.82070
H782        H  0.95134357  0.56021142  0.41163451     0.79670
H783        H  0.92867257  0.99456034  0.64533304     0.42710
H784        H  0.54182321  0.53631168  0.65002744     0.41680
H785        H  0.62297660  0.63122317  0.53187797     0.41360
H786        H  0.65888280  0.58706514  0.44646039     0.39290
H787        H  0.53873114  0.53399791  0.35103837     0.42420
H788        H  0.92961085  0.99400828  0.35577401     0.37210
H789        H  0.87719223  0.88324645  0.46425973     0.43320
H790        H  0.89299969  0.86521197  0.55176150     0.39740
H791        H  0.63720967  0.61816010  0.40835700     0.44660
H792        H  0.94261942  0.93642589  0.35131704     0.43380
H793        H  0.88778458  0.87807985  0.59990174     0.43520
H794        H  0.58415743  0.57748815  0.64572904     0.43880
C795        C  0.00185470  0.76076028  0.34167122     0.03430
C796        C  0.98565967  0.71789244  0.36448213    -0.12720
C797        C  0.98755986  0.71639419  0.40870732     0.00930
C798        C  0.50705929  0.75786992  0.43023030    -0.11250
C799        C  0.52335589  0.80100123  0.40784668     0.03420
C800        C  0.02010250  0.80225221  0.36373525    -0.10670
H801        H  0.97337792  0.68475235  0.34772715     0.09010
H802        H  0.50886736  0.75684838  0.46425173     0.06540
H803        H  0.02880279  0.83703934  0.34677142     0.06390
C804        C  0.75050915  0.52212351  0.34222904     0.03430
C805        C  0.79173699  0.53630917  0.36686599    -0.12720
C806        C  0.79056625  0.52906792  0.41089387     0.00930
C807        C  0.74734842  0.50666739  0.43017233    -0.11250
C808        C  0.70531810  0.49293123  0.40573935     0.03420
C809        C  0.70777809  0.50055439  0.36187558    -0.10670
H810        H  0.82583487  0.55078086  0.35152829     0.09010
H811        H  0.74661639  0.49973976  0.46382179     0.06540
H812        H  0.67590373  0.48972849  0.34272133     0.06390
C813        C  0.74699439  0.51747296  0.65779235     0.03430
C814        C  0.70406337  0.49763958  0.63859075    -0.12720
C815        C  0.70240146  0.49160538  0.59467479     0.00930
C816        C  0.74500058  0.50591830  0.56983459    -0.11250
C817        C  0.78786468  0.52756002  0.58875253     0.03420
C818        C  0.78828370  0.53314519  0.63271280    -0.10670
H819        H  0.67161048  0.48684958  0.65807390     0.09010
H820        H  0.74491093  0.50014589  0.53616760     0.06540
H821        H  0.82206503  0.54728642  0.64769083     0.06390
C822        C  0.99259940  0.75640606  0.65823986     0.03430
C823        C  0.97619071  0.71489259  0.63515060    -0.12720
C824        C  0.98145175  0.71460548  0.59096804     0.00930
C825        C  0.00310136  0.75653592  0.57003127    -0.11250
C826        C  0.01940149  0.79837506  0.59292310     0.03420
C827        C  0.01446042  0.79765199  0.63698163    -0.10670
H828        H  0.96212394  0.68163372  0.65173233     0.09010
H829        H  0.50689392  0.75674759  0.53605683     0.06540
H830        H  0.02506559  0.83068667  0.65469386     0.06390
C831        C  0.74797236  0.52693450  0.15883149     0.03430
C832        C  0.75758679  0.98349979  0.13477022    -0.12720
C833        C  0.75149426  0.98419324  0.09073527     0.00930
C834        C  0.73231264  0.52832199  0.07082751    -0.11250
C835        C  0.72185132  0.57206501  0.09452537     0.03420
C836        C  0.73118956  0.57100134  0.13805341    -0.10670
H837        H  0.76715109  0.94810863  0.15042909     0.09010
H838        H  0.72523381  0.52841386  0.03731228     0.06540
H839        H  0.72494219  0.60503901  0.15616709     0.06390
O840        O  0.71304509  0.91067112  0.92432349    -0.74990
O841        O  0.79025213  0.92275669  0.95493476    -0.53900
C842        C  0.75232689  0.93712237  0.93173044     0.78730
O843        O  0.60029205  0.78766698  0.07933768    -0.59600
O844        O  0.58653676  0.71270734  0.04608762    -0.52620
C845        C  0.57335265  0.74918388  0.07087767     0.70750
O846        O  0.71237161  0.90854356  0.07704630    -0.74150
O847        O  0.78979187  0.92154842  0.04502386    -0.54720
C848        C  0.75171783  0.93525752  0.06889094     0.76750
O849        O  0.60142699  0.78950768  0.92164243    -0.59300
O850        O  0.58788138  0.71306946  0.95450566    -0.52420
C851        C  0.57465050  0.75035168  0.93018049     0.73340
Zr852      Zr  0.68142475  0.82735875  0.93847424     2.54710
O853        O  0.61272984  0.88950800  0.93487324    -0.79860
O854        O  0.69230893  0.82592312  0.86215885    -0.93280
Zr855      Zr  0.68011587  0.82608943  0.06201883     2.64680
O856        O  0.61396633  0.89109886  0.06623372    -0.98240
O857        O  0.68781926  0.81816982  0.13829780    -0.80300
O858        O  0.71550018  0.86199514  0.00004351    -0.83650
O859        O  0.64586127  0.79170306  0.00039900    -2.18360
O860        O  0.73016808  0.66259862  0.90723074    -0.67040
O861        O  0.68251318  0.62639325  0.95860153    -0.51610
C862        C  0.71101961  0.62362148  0.92526881     0.71730
O863        O  0.86243269  0.75586605  0.08114103    -0.59950
O864        O  0.87912248  0.83045479  0.04637829    -0.51930
C865        C  0.89049834  0.79373626  0.07228198     0.73530
O866        O  0.72541238  0.66053335  0.09252285    -0.71350
O867        O  0.68090364  0.62461249  0.04122864    -0.50020
C868        C  0.70825038  0.62141882  0.07459897     0.74910
O869        O  0.86451999  0.76052507  0.91823895    -0.66680
O870        O  0.88101440  0.83305684  0.95400008    -0.53870
C871        C  0.89277108  0.79768911  0.92745293     0.73290
Zr872      Zr  0.78510040  0.72384780  0.93794332     2.77540
O873        O  0.84220482  0.65100938  0.94358340    -0.97430
O874        O  0.79816501  0.72506099  0.86175559    -0.78250
Zr875      Zr  0.78265947  0.72195592  0.06218371     2.70070
O876        O  0.83770472  0.64753314  0.05877880    -0.79490
O877        O  0.79002837  0.72480739  0.13840795    -0.98580
Zr878      Zr  0.80502594  0.84669643  0.00003094     2.21500
Zr879      Zr  0.66182401  0.70215211  0.00012293     2.11130
O880        O  0.75174088  0.68614140  0.00004321    -2.47260
O881        O  0.81935249  0.75744280  0.00009601    -0.79290
O882        O  0.69651297  0.73928394  0.93660164    -0.71480
O883        O  0.76858724  0.81052200  0.06328175    -2.32440
O884        O  0.77021076  0.81224259  0.93697407    -2.28650
O885        O  0.69438035  0.73777509  0.06339539    -0.73240
H886        H  0.60978647  0.79879568  0.00044110     0.78760
H887        H  0.78319473  0.82506552  0.08810906     0.79840
H888        H  0.75994440  0.65048582  0.00015696     0.82070
H889        H  0.78565078  0.82767041  0.91222740     0.79670
H890        H  0.71394112  0.84309394  0.14584751     0.42710
H891        H  0.75635959  0.73693651  0.14857996     0.41680
H892        H  0.86221466  0.65526278  0.03564071     0.41360
H893        H  0.81988556  0.62107201  0.94380613     0.39290
H894        H  0.76929688  0.74535150  0.85079848     0.42420
H895        H  0.72661793  0.83972236  0.85646205     0.37210
H896        H  0.60777034  0.90063364  0.96436946     0.43320
H897        H  0.58726747  0.88020042  0.04667837     0.39740
H898        H  0.86003836  0.64980245  0.91588734     0.44660
H899        H  0.66888991  0.85278926  0.85195326     0.43380
H900        H  0.59857028  0.88701500  0.09475096     0.43520
H901        H  0.79155496  0.68886721  0.14746976     0.43880
C902        C  0.98205082  0.76767531  0.15939375     0.03430
C903        C  0.52301073  0.74794415  0.13592783    -0.12720
C904        C  0.52368584  0.75050699  0.09188176     0.00930
C905        C  0.98197119  0.77166869  0.07067027    -0.11250
C906        C  0.93978550  0.79040853  0.09337722     0.03420
C907        C  0.94034461  0.78879897  0.13784542    -0.10670
H908        H  0.55618657  0.73312519  0.15203527     0.09010
H909        H  0.98224713  0.77327674  0.03656516     0.06540
H910        H  0.90757736  0.80262696  0.15547418     0.06390
C911        C  0.74524639  0.52933924  0.84076123     0.03430
C912        C  0.75623497  0.98588880  0.86508166    -0.12720
C913        C  0.75220260  0.98636548  0.90938759     0.00930
C914        C  0.73406718  0.53047474  0.92942500    -0.11250
C915        C  0.72367618  0.57456459  0.90548605     0.03420
C916        C  0.73198822  0.57394627  0.86167403    -0.10670
H917        H  0.76526379  0.95060325  0.84949559     0.09010
H918        H  0.72796662  0.53038823  0.96322600     0.06540
H919        H  0.72734676  0.60860384  0.84353929     0.06390
C920        C  0.98538903  0.76464360  0.84165538     0.03430
C921        C  0.52353526  0.74268787  0.86676553    -0.12720
C922        C  0.52501037  0.75153119  0.91008155     0.00930
C923        C  0.98450219  0.77722178  0.92990768    -0.11250
C924        C  0.94293344  0.79451745  0.90644416     0.03420
C925        C  0.94471412  0.79004125  0.86218195    -0.10670
H926        H  0.55407270  0.72073638  0.85268414     0.09010
H927        H  0.98479515  0.78257663  0.96366788     0.06540
H928        H  0.91293113  0.80452084  0.84420226     0.06390
C929        C  0.98958078  0.75636244  0.70489200     0.00140
C930        C  0.53472901  0.76111266  0.72713862    -0.11730
C931        C  0.53445941  0.76429819  0.77108081     0.02380
C932        C  0.98789978  0.76099414  0.79436960     0.00060
C933        C  0.94254672  0.75567979  0.77156994    -0.11670
C934        C  0.94300811  0.75446507  0.72730563     0.02260
H935        H  0.57057059  0.76340882  0.70981964     0.15240
H936        H  0.90636000  0.75284225  0.78815179     0.15240
C937        C  0.89518648  0.75459328  0.70547132     0.36900
C938        C  0.58289676  0.77294166  0.79036091     0.36800
N939        N  0.85693732  0.75547666  0.68784475    -0.43450
N940        N  0.62231995  0.77889623  0.80513248    -0.43440
C941        C  0.74837132  0.52138616  0.70435282     0.00140
C942        C  0.70989609  0.54895123  0.72489106    -0.11730
C943        C  0.70784966  0.55190132  0.76889018     0.02380
C944        C  0.74595875  0.52779344  0.79357351     0.00060
C945        C  0.78465102  0.00027863  0.77267005    -0.11670
C946        C  0.78569042  0.99629629  0.72860372     0.02260
H947        H  0.68067198  0.56761632  0.70635341     0.15240
H948        H  0.81398961  0.98130047  0.79079412     0.15240
C949        C  0.82348330  0.96373312  0.70923371     0.36900
C950        C  0.66466266  0.57807629  0.78736168     0.36800
N951        N  0.85335394  0.93715077  0.69375271    -0.43450
N952        N  0.63019809  0.59951126  0.80189512    -0.43440
C953        C  0.75112030  0.52627931  0.20599815     0.00140
C954        C  0.71266967  0.55127656  0.22936171    -0.11730
C955        C  0.71351276  0.55275399  0.27339587     0.02380
C956        C  0.75229231  0.52714127  0.29551660     0.00060
C957        C  0.79133762  0.00289054  0.27259440    -0.11670
C958        C  0.79138732  0.00260343  0.22827933     0.02260
H959        H  0.68135517  0.56969737  0.21322403     0.15240
H960        H  0.82150961  0.98341286  0.28941983     0.15240
C961        C  0.83383922  0.97872455  0.20681799     0.36900
C962        C  0.67496443  0.58222804  0.29511217     0.36800
N963        N  0.86786778  0.95931803  0.18980081    -0.43450
N964        N  0.64438156  0.60630174  0.31240276    -0.43440
C965        C  0.99731971  0.76318618  0.29497313     0.00140
C966        C  0.95182289  0.74771225  0.27661496    -0.11730
C967        C  0.94570943  0.74901975  0.23281806     0.02380
C968        C  0.98506576  0.76764131  0.20629617     0.00060
C969        C  0.53038359  0.78371613  0.22479160    -0.11670
C970        C  0.53721847  0.78070041  0.26843008     0.02260
H971        H  0.92097176  0.73395675  0.29659762     0.15240
H972        H  0.56118904  0.79777893  0.20490851     0.15240
C973        C  0.58653228  0.79317646  0.28470816     0.36900
C974        C  0.89996918  0.72788656  0.21623966     0.36800
N975        N  0.62612051  0.80300899  0.29766741    -0.43450
N976        N  0.86313930  0.71022258  0.20378827    -0.43440
loop_ 
_geom_bond_atom_site_label_1 
_geom_bond_atom_site_label_2 
_geom_bond_distance 
_geom_bond_site_symmetry_2 
_ccdc_geom_bond_type 
O1          Zr13   2.393       .  S
O1          C247   1.278       .  A
O2          Zr39   2.485       .  S
O2            C3   1.299       .  A
C3          O245   1.278   1_545  A
C3           C74   1.474       .  S
O4          Zr16   2.389       .  S
O4          C494   1.277       .  A
O5          Zr40   2.465       .  S
O5            C6   1.295       .  A
C6          O492   1.277   1_455  A
C6          C582   1.463       .  S
O7          Zr16   2.391       .  S
O7          C253   1.277       .  A
O8          Zr39   2.480       .  S
O8            C9   1.297       .  A
C9          O251   1.277   1_545  A
C9           C85   1.471       .  S
O10         Zr13   2.382       .  S
O10         C500   1.277       .  A
O11         Zr40   2.467       .  S
O11          C12   1.295       .  A
C12         O498   1.277   1_455  A
C12          C67   1.461       .  S
Zr13         O14   2.434       .  S
Zr13         O15   2.436       .  S
Zr13         O19   2.351       .  S
Zr13         O20   2.358       .  S
Zr13        O531   2.359       .  S
Zr13        O289   2.359       .  S
O14          H57   0.990       .  S
O15          H56   0.990       .  S
O15          H60   0.990       .  S
Zr16         O17   2.439       .  S
Zr16         O18   2.435       .  S
Zr16         O20   2.357       .  S
Zr16         O19   2.354       .  S
Zr16        O288   2.359       .  S
Zr16        O534   2.357       .  S
O17          H58   0.990       .  S
O17          H61   0.990       .  S
O18          H51   0.990       .  S
O19        Zr283   2.377       .  S
O20        Zr528   2.399       .  S
O20          H47   0.965       .  S
O21         Zr33   2.410   1_565  S
O21         C267   1.277       .  A
O22         Zr40   2.470       .  S
O22          C23   1.290       .  A
C23         O265   1.277       .  A
C23         C320   1.484       .  S
O24         Zr36   2.389       .  S
O24         C514   1.278   1_455  A
O25         Zr39   2.473       .  S
O25          C26   1.297       .  A
C26         O512   1.278       .  A
C26          C92   1.465       .  S
O27         Zr36   2.411   1_565  S
O27         C273   1.277       .  A
O28         Zr40   2.470       .  S
O28          C29   1.291       .  A
C29         O271   1.277       .  A
C29         C327   1.483       .  S
O30         Zr33   2.381       .  S
O30         C520   1.276   1_455  A
O31         Zr39   2.474       .  S
O31          C32   1.297       .  A
C32         O518   1.276       .  A
C32          C65   1.463       .  S
Zr33         O34   2.439       .  S
Zr33         O35   2.434       .  S
Zr33         O41   2.359       .  S
Zr33         O42   2.364       .  S
Zr33        O533   2.371   1_455  S
Zr33        O287   2.359   1_545  S
O34          H54   0.989       .  S
O34          H59   0.990       .  S
O35          H55   0.990       .  S
Zr36         O37   2.435       .  S
Zr36         O38   2.436       .  S
Zr36         O42   2.362       .  S
Zr36         O41   2.359       .  S
Zr36        O290   2.362   1_545  S
Zr36        O532   2.371   1_455  S
O37          H53   0.990       .  S
O38          H52   0.990       .  S
O38          H62   0.990       .  S
Zr39         O44   2.404       .  S
Zr39         O45   2.402       .  S
Zr39        O263   2.377   1_545  S
Zr39        O530   2.387       .  S
Zr40         O43   2.400       .  S
Zr40         O46   2.402       .  S
Zr40        O508   2.399   1_455  S
Zr40        O285   2.403       .  S
O41        Zr284   2.403   1_545  S
O41          H49   0.965       .  S
O42        Zr527   2.387   1_455  S
O43        Zr501   2.359   1_455  S
O43        Zr277   2.359       .  S
O44        Zr260   2.359   1_545  S
O44        Zr524   2.371       .  S
O44          H48   0.966       .  S
O45        Zr257   2.359   1_545  S
O45        Zr521   2.371       .  S
O45          H50   0.966       .  S
O46        Zr504   2.357   1_455  S
O46        Zr280   2.362       .  S
C63         C233   1.487       .  S
C63          C64   1.403       .  A
C63          C68   1.401       .  A
C64          C65   1.404       .  A
C64          H69   1.084       .  S
C65         C554   1.404       .  A
C66          C67   1.403       .  A
C66         C553   1.404   1_455  A
C66          H70   1.080       .  S
C67         C556   1.402       .  A
C68         C555   1.402       .  A
C68          H71   1.084       .  S
C72         C224   1.485       .  S
C72          C73   1.402       .  A
C72          C77   1.400       .  A
C73          C74   1.406       .  A
C73          H78   1.084       .  S
C74          C75   1.414       .  A
C75          C76   1.411   1_545  A
C75          H79   1.080   1_545  S
C76         C267   1.484       .  S
C76          C77   1.403   1_565  A
C77          H80   1.084   1_545  S
C81         C209   1.482       .  S
C81          C82   1.399   1_545  A
C81          C86   1.399       .  A
C82          C83   1.404       .  A
C82          H87   1.084       .  S
C83         C273   1.483       .  S
C83          C84   1.412   1_565  A
C84          C85   1.413       .  A
C84          H88   1.080       .  S
C85          C86   1.403       .  A
C86          H89   1.085       .  S
C90         C197   1.480       .  S
C90          C91   1.402       .  A
C90          C95   1.399       .  A
C91          C92   1.406       .  A
C91          H96   1.084       .  S
C92          C93   1.406       .  A
C93          C94   1.404       .  A
C93         H585   1.080       .  S
C94         C494   1.463       .  S
C94          C95   1.401       .  A
C95          H98   1.085       .  S
H97         C581   1.080       .  S
C99         C221   1.498       .  S
C99         C104   1.402       .  A
C99         C344   1.406   1_545  A
C100        C101   1.407       .  A
C100        C343   1.406       .  A
C100        H105   1.083       .  S
C101        C116   1.475       .  S
C101        C346   1.412       .  A
C102        C103   1.410       .  A
C102        C345   1.412   1_545  A
C102        H106   1.081       .  S
C103        C136   1.486       .  S
C103        C104   1.405       .  A
C104        H107   1.084       .  S
O108       Zr120   2.397       .  S
O108        C110   1.279       .  A
O109       Zr146   2.484   1_556  S
O109        C110   1.299       .  A
C110        C181   1.475       .  S
O111       Zr123   2.394       .  S
O111        C113   1.279       .  A
O112       Zr147   2.457       .  S
O112        C113   1.293       .  A
C113        C172   1.458       .  S
O114       Zr123   2.402       .  S
O114        C116   1.280       .  A
O115       Zr146   2.480       .  S
O115        C116   1.298       .  A
O117       Zr120   2.407       .  S
O117        C119   1.282       .  A
O118       Zr147   2.452   1_556  S
O118        C119   1.292       .  A
C119        C190   1.460       .  S
Zr120       O121   2.434       .  S
Zr120       O122   2.433       .  S
Zr120       O126   2.358   1_556  S
Zr120       O127   2.353   1_556  S
Zr120       O150   2.360       .  S
Zr120       O152   2.365       .  S
O121        H164   0.990       .  S
O122        H163   0.990       .  S
O122        H167   0.990       .  S
Zr123       O124   2.438       .  S
Zr123       O125   2.436       .  S
Zr123       O127   2.358       .  S
Zr123       O126   2.355       .  S
Zr123       O151   2.359       .  S
Zr123       O153   2.362       .  S
O124        H165   0.990       .  S
O124        H168   0.990       .  S
O125        H158   0.990       .  S
O126       Zr146   2.385       .  S
O127       Zr147   2.401       .  S
O127        H154   0.965       .  S
O128       Zr140   2.404       .  S
O128        C130   1.277       .  A
O129       Zr147   2.463   1_556  S
O129        C130   1.289       .  A
C130        C183   1.481       .  S
O131       Zr143   2.377       .  S
O131        C133   1.276       .  A
O132       Zr146   2.488       .  S
O132        C133   1.299       .  A
C133        C174   1.468       .  S
O134       Zr143   2.407       .  S
O134        C136   1.275       .  A
O135       Zr147   2.467       .  S
O135        C136   1.289       .  A
O137       Zr140   2.383       .  S
O137        C139   1.277       .  A
O138       Zr146   2.484   1_556  S
O138        C139   1.298       .  A
C139        C192   1.471       .  S
Zr140       O141   2.438       .  S
Zr140       O142   2.434       .  S
Zr140       O148   2.357   1_556  S
Zr140       O149   2.364   1_556  S
Zr140       O152   2.367       .  S
Zr140       O150   2.362       .  S
O141        H161   0.990       .  S
O141        H166   0.990       .  S
O142        H162   0.990       .  S
Zr143       O144   2.435       .  S
Zr143       O145   2.429       .  S
Zr143       O149   2.367       .  S
Zr143       O148   2.354       .  S
Zr143       O153   2.355       .  S
Zr143       O151   2.368       .  S
O144        H160   0.990       .  S
O145        H159   0.990       .  S
O145        H169   0.990       .  S
Zr146       O149   2.387       .  S
Zr146       O151   2.402       .  S
Zr146       O152   2.403   1_554  S
Zr147       O148   2.398       .  S
Zr147       O150   2.401   1_554  S
Zr147       O153   2.399       .  S
O148        H156   0.965       .  S
O151        H155   0.966       .  S
O152        H157   0.966       .  S
C170        C236   1.490       .  S
C170        C175   1.408       .  A
C170        C659   1.401       .  A
C171        C172   1.397       .  A
C171        C658   1.401   1_455  A
C171        H176   1.085       .  S
C172        C661   1.403   1_455  A
C173        C174   1.404       .  A
C173        C660   1.403       .  A
C173        H177   1.081       .  S
C174        C175   1.410       .  A
C175        H178   1.083       .  S
C179        C212   1.497       .  S
C179        C184   1.399       .  A
C179        C424   1.406   1_545  A
C180        C181   1.407       .  A
C180        C423   1.406       .  A
C180        H185   1.084       .  S
C181        C426   1.411       .  A
C182        C183   1.410       .  A
C182        C425   1.411   1_545  A
C182        H186   1.081       .  S
C183        C184   1.403       .  A
C184        H187   1.083       .  S
C188        C200   1.504       .  S
C188        C193   1.413       .  A
C188        C677   1.406       .  A
C189        C190   1.397       .  A
C189        C676   1.406   1_455  A
C189        H194   1.081       .  S
C190        C679   1.403   1_455  A
C191        C192   1.401       .  A
C191        C678   1.403       .  A
C191        H195   1.081       .  S
C192        C193   1.410       .  A
C193        H196   1.083       .  S
C197        C202   1.408       .  A
C197        C686   1.397       .  A
C198        C199   1.396       .  A
C198        C685   1.397   1_455  A
C198        H203   1.086       .  S
C199        C688   1.423   1_455  A
C199        C206   1.442       .  S
C200        C201   1.412       .  A
C200        C687   1.423       .  A
C201        C202   1.404       .  A
C201        H204   1.083       .  S
C202        C205   1.444       .  S
C205        N207   1.157       .  T
C206        N208   1.156       .  T
C209        C210   1.399       .  A
C209        C458   1.411   1_545  A
C210        C211   1.398       .  A
C210        H215   1.085       .  S
C211        C212   1.422       .  A
C211        C218   1.445       .  S
C212        C457   1.408       .  A
C213        C214   1.402       .  A
C213        C456   1.408       .  A
C213        H216   1.084       .  S
C214        C453   1.411       .  A
C214        C217   1.444       .  S
C217        N219   1.157       .  T
C218        N220   1.158       .  T
C221        C222   1.409       .  A
C221        C470   1.418       .  A
C222        C223   1.397       .  A
C222        H227   1.084       .  S
C223        C224   1.409       .  A
C223        C230   1.445       .  S
C224        C469   1.404       .  A
C225        C226   1.405       .  A
C225        C468   1.404       .  A
C225        H228   1.085       .  S
C226        C465   1.418       .  A
C226        C229   1.443       .  S
C229        N231   1.157       .  T
C230        N232   1.157       .  T
C233        C234   1.404       .  A
C233        C726   1.413       .  A
C234        C235   1.400       .  A
C234        H239   1.085       .  S
C235        C236   1.412       .  A
C235        C242   1.440       .  S
C236        C725   1.407       .  A
C237        C238   1.399       .  A
C237        C724   1.407   1_455  A
C237        H240   1.085       .  S
C238        C721   1.413   1_455  A
C238        C241   1.445       .  S
C241        N243   1.157       .  T
C242        N244   1.156       .  T
O245       Zr257   2.393       .  S
O246       Zr283   2.485       .  S
O246        C247   1.299       .  A
C247        C318   1.474       .  S
O248       Zr260   2.389       .  S
O248        C738   1.277       .  A
O249       Zr284   2.465       .  S
O249        C250   1.295       .  A
C250        O736   1.277   1_455  A
C250        C826   1.463       .  S
O251       Zr260   2.391       .  S
O252       Zr283   2.480       .  S
O252        C253   1.297       .  A
C253        C329   1.471       .  S
O254       Zr257   2.382       .  S
O254        C744   1.277       .  A
O255       Zr284   2.467       .  S
O255        C256   1.295       .  A
C256        O742   1.277   1_455  A
C256        C311   1.461       .  S
Zr257       O258   2.434       .  S
Zr257       O259   2.436       .  S
Zr257       O263   2.351       .  S
Zr257       O264   2.358       .  S
Zr257       O775   2.359       .  S
O258        H301   0.990       .  S
O259        H300   0.990       .  S
O259        H304   0.990       .  S
Zr260       O261   2.439       .  S
Zr260       O262   2.435       .  S
Zr260       O264   2.357       .  S
Zr260       O263   2.354       .  S
Zr260       O778   2.357       .  S
O261        H302   0.990       .  S
O261        H305   0.990       .  S
O262        H295   0.990       .  S
O264       Zr772   2.399       .  S
O264        H291   0.965       .  S
O265       Zr277   2.410       .  S
O266       Zr284   2.470       .  S
O266        C267   1.290       .  A
O268       Zr280   2.389       .  S
O268        C758   1.278   1_455  A
O269       Zr283   2.473       .  S
O269        C270   1.297       .  A
C270        O756   1.278       .  A
C270        C336   1.465       .  S
O271       Zr280   2.411       .  S
O272       Zr284   2.470       .  S
O272        C273   1.291       .  A
O274       Zr277   2.381       .  S
O274        C764   1.276   1_455  A
O275       Zr283   2.474       .  S
O275        C276   1.297       .  A
C276        O762   1.276       .  A
C276        C309   1.463       .  S
Zr277       O278   2.439       .  S
Zr277       O279   2.434       .  S
Zr277       O285   2.359       .  S
Zr277       O286   2.364       .  S
Zr277       O777   2.371   1_455  S
O278        H298   0.989       .  S
O278        H303   0.990       .  S
O279        H299   0.990       .  S
Zr280       O281   2.435       .  S
Zr280       O282   2.436       .  S
Zr280       O286   2.362       .  S
Zr280       O285   2.359       .  S
Zr280       O776   2.371   1_455  S
O281        H297   0.990       .  S
O282        H296   0.990       .  S
O282        H306   0.990       .  S
Zr283       O774   2.387       .  S
Zr283       O288   2.404       .  S
Zr283       O289   2.402       .  S
Zr284       O752   2.399   1_455  S
Zr284       O287   2.400       .  S
Zr284       O290   2.402       .  S
O285        H293   0.965       .  S
O286       Zr771   2.387   1_455  S
O287       Zr745   2.359   1_455  S
O288       Zr768   2.371       .  S
O288        H292   0.966       .  S
O289       Zr765   2.371       .  S
O289        H294   0.966       .  S
O290       Zr748   2.357   1_455  S
C307        C477   1.487       .  S
C307        C308   1.403       .  A
C307        C312   1.401       .  A
C308        C309   1.404       .  A
C308        H313   1.084       .  S
C309        C798   1.404       .  A
C310        C797   1.404   1_455  A
C310        C311   1.403       .  A
C310        H314   1.080       .  S
C311        C800   1.402       .  A
C312        C799   1.402       .  A
C312        H315   1.084       .  S
C316        C468   1.485       .  S
C316        C317   1.402       .  A
C316        C321   1.400       .  A
C317        C318   1.406       .  A
C317        H322   1.084       .  S
C318        C319   1.414       .  A
C319        C320   1.411       .  A
C319        H323   1.080       .  S
C320        C321   1.403       .  A
C321        H324   1.084       .  S
C325        C453   1.482       .  S
C325        C326   1.399       .  A
C325        C330   1.399       .  A
C326        C327   1.404       .  A
C326        H331   1.084       .  S
C327        C328   1.412       .  A
C328        C329   1.413       .  A
C328        H332   1.080       .  S
C329        C330   1.403       .  A
C330        H333   1.085       .  S
C334        C441   1.480       .  S
C334        C335   1.402       .  A
C334        C339   1.399       .  A
C335        C336   1.406       .  A
C335        H340   1.084       .  S
C336        C337   1.406       .  A
C337        C338   1.404       .  A
C337        H829   1.080       .  S
C338        C738   1.463       .  S
C338        C339   1.401       .  A
C339        H342   1.085       .  S
H341        C825   1.080       .  S
C343        C465   1.498       .  S
C343        C348   1.402       .  A
C344        C345   1.407       .  A
C344        H349   1.083       .  S
C345        C360   1.475       .  S
C346        C347   1.410       .  A
C346        H350   1.081       .  S
C347        C380   1.486       .  S
C347        C348   1.405       .  A
C348        H351   1.084       .  S
O352       Zr364   2.397       .  S
O352        C354   1.279       .  A
O353       Zr390   2.484   1_556  S
O353        C354   1.299       .  A
C354        C425   1.475       .  S
O355       Zr367   2.394       .  S
O355        C357   1.279       .  A
O356       Zr391   2.457       .  S
O356        C357   1.293       .  A
C357        C416   1.458       .  S
O358       Zr367   2.402       .  S
O358        C360   1.280       .  A
O359       Zr390   2.480       .  S
O359        C360   1.298       .  A
O361       Zr364   2.407       .  S
O361        C363   1.282       .  A
O362       Zr391   2.452   1_556  S
O362        C363   1.292       .  A
C363        C434   1.460       .  S
Zr364       O365   2.434       .  S
Zr364       O366   2.433       .  S
Zr364       O370   2.358   1_556  S
Zr364       O371   2.353   1_556  S
Zr364       O394   2.360       .  S
Zr364       O396   2.365       .  S
O365        H408   0.990       .  S
O366        H407   0.990       .  S
O366        H411   0.990       .  S
Zr367       O368   2.438       .  S
Zr367       O369   2.436       .  S
Zr367       O371   2.358       .  S
Zr367       O370   2.355       .  S
Zr367       O395   2.359       .  S
Zr367       O397   2.362       .  S
O368        H409   0.990       .  S
O368        H412   0.990       .  S
O369        H402   0.990       .  S
O370       Zr390   2.385       .  S
O371       Zr391   2.401       .  S
O371        H398   0.965       .  S
O372       Zr384   2.404       .  S
O372        C374   1.277       .  A
O373       Zr391   2.463   1_556  S
O373        C374   1.289       .  A
C374        C427   1.481       .  S
O375       Zr387   2.377       .  S
O375        C377   1.276       .  A
O376       Zr390   2.488       .  S
O376        C377   1.299       .  A
C377        C418   1.468       .  S
O378       Zr387   2.407       .  S
O378        C380   1.275       .  A
O379       Zr391   2.467       .  S
O379        C380   1.289       .  A
O381       Zr384   2.383       .  S
O381        C383   1.277       .  A
O382       Zr390   2.484   1_556  S
O382        C383   1.298       .  A
C383        C436   1.471       .  S
Zr384       O385   2.438       .  S
Zr384       O386   2.434       .  S
Zr384       O392   2.357   1_556  S
Zr384       O393   2.364   1_556  S
Zr384       O396   2.367       .  S
Zr384       O394   2.362       .  S
O385        H405   0.990       .  S
O385        H410   0.990       .  S
O386        H406   0.990       .  S
Zr387       O388   2.435       .  S
Zr387       O389   2.429       .  S
Zr387       O393   2.367       .  S
Zr387       O392   2.354       .  S
Zr387       O397   2.355       .  S
Zr387       O395   2.368       .  S
O388        H404   0.990       .  S
O389        H403   0.990       .  S
O389        H413   0.990       .  S
Zr390       O393   2.387       .  S
Zr390       O395   2.402       .  S
Zr390       O396   2.403   1_554  S
Zr391       O392   2.398       .  S
Zr391       O394   2.401   1_554  S
Zr391       O397   2.399       .  S
O392        H400   0.965       .  S
O395        H399   0.966       .  S
O396        H401   0.966       .  S
C414        C480   1.490       .  S
C414        C903   1.401       .  A
C414        C419   1.408       .  A
C415        C902   1.401   1_455  A
C415        C416   1.397       .  A
C415        H420   1.085       .  S
C416        C905   1.403   1_455  A
C417        C904   1.403       .  A
C417        C418   1.404       .  A
C417        H421   1.081       .  S
C418        C419   1.410       .  A
C419        H422   1.083       .  S
C423        C456   1.497       .  S
C423        C428   1.399       .  A
C424        C425   1.407       .  A
C424        H429   1.084       .  S
C426        C427   1.410       .  A
C426        H430   1.081       .  S
C427        C428   1.403       .  A
C428        H431   1.083       .  S
C432        C444   1.504       .  S
C432        C921   1.406       .  A
C432        C437   1.413       .  A
C433        C920   1.406   1_455  A
C433        C434   1.397       .  A
C433        H438   1.081       .  S
C434        C923   1.403   1_455  A
C435        C922   1.403       .  A
C435        C436   1.401       .  A
C435        H439   1.081       .  S
C436        C437   1.410       .  A
C437        H440   1.083       .  S
C441        C930   1.397       .  A
C441        C446   1.408       .  A
C442        C929   1.397   1_455  A
C442        C443   1.396       .  A
C442        H447   1.086       .  S
C443        C932   1.423   1_455  A
C443        C450   1.442       .  S
C444        C931   1.423       .  A
C444        C445   1.412       .  A
C445        C446   1.404       .  A
C445        H448   1.083       .  S
C446        C449   1.444       .  S
C449        N451   1.157       .  T
C450        N452   1.156       .  T
C453        C454   1.399       .  A
C454        C455   1.398       .  A
C454        H459   1.085       .  S
C455        C456   1.422       .  A
C455        C462   1.445       .  S
C457        C458   1.402   1_545  A
C457        H460   1.084   1_545  S
C458        C461   1.444       .  S
C461        N463   1.157       .  T
C462        N464   1.158       .  T
C465        C466   1.409       .  A
C466        C467   1.397       .  A
C466        H471   1.084       .  S
C467        C468   1.409       .  A
C467        C474   1.445       .  S
C469        C470   1.405       .  A
C469        H472   1.085   1_545  S
C470        C473   1.443   1_545  S
C473        N475   1.157       .  T
C474        N476   1.157       .  T
C477        C478   1.404       .  A
C477        C970   1.413       .  A
C478        C479   1.400       .  A
C478        H483   1.085       .  S
C479        C480   1.412       .  A
C479        C486   1.440       .  S
C480        C969   1.407       .  A
C481        C968   1.407   1_455  A
C481        C482   1.399       .  A
C481        H484   1.085       .  S
C482        C965   1.413   1_455  A
C482        C485   1.445       .  S
C485        N487   1.157       .  T
C486        N488   1.156       .  T
O489       Zr501   2.393       .  S
O489        C735   1.278       .  A
O490       Zr527   2.485       .  S
O490        C491   1.299       .  A
C491        O733   1.278   1_545  A
C491        C562   1.474       .  S
O492       Zr504   2.389       .  S
O493       Zr528   2.465       .  S
O493        C494   1.295       .  A
O495       Zr504   2.391       .  S
O495        C741   1.277       .  A
O496       Zr527   2.480       .  S
O496        C497   1.297       .  A
C497        O739   1.277   1_545  A
C497        C573   1.471       .  S
O498       Zr501   2.382       .  S
O499       Zr528   2.467       .  S
O499        C500   1.295       .  A
C500        C555   1.461       .  S
Zr501       O502   2.434       .  S
Zr501       O503   2.436       .  S
Zr501       O507   2.351       .  S
Zr501       O508   2.358       .  S
Zr501       O777   2.359       .  S
O502        H545   0.990       .  S
O503        H544   0.990       .  S
O503        H548   0.990       .  S
Zr504       O505   2.439       .  S
Zr504       O506   2.435       .  S
Zr504       O508   2.357       .  S
Zr504       O507   2.354       .  S
Zr504       O776   2.359       .  S
O505        H546   0.990       .  S
O505        H549   0.990       .  S
O506        H539   0.990       .  S
O507       Zr771   2.377       .  S
O508        H535   0.965       .  S
O509       Zr521   2.410   1_565  S
O509        C755   1.277       .  A
O510       Zr528   2.470       .  S
O510        C511   1.290       .  A
C511        O753   1.277       .  A
C511        C808   1.484       .  S
O512       Zr524   2.389       .  S
O513       Zr527   2.473       .  S
O513        C514   1.297       .  A
C514        C580   1.465       .  S
O515       Zr524   2.411   1_565  S
O515        C761   1.277       .  A
O516       Zr528   2.470       .  S
O516        C517   1.291       .  A
C517        O759   1.277       .  A
C517        C815   1.483       .  S
O518       Zr521   2.381       .  S
O519       Zr527   2.474       .  S
O519        C520   1.297       .  A
C520        C553   1.463       .  S
Zr521       O522   2.439       .  S
Zr521       O523   2.434       .  S
Zr521       O529   2.359       .  S
Zr521       O530   2.364       .  S
Zr521       O775   2.359   1_545  S
O522        H542   0.989       .  S
O522        H547   0.990       .  S
O523        H543   0.990       .  S
Zr524       O525   2.435       .  S
Zr524       O526   2.436       .  S
Zr524       O530   2.362       .  S
Zr524       O529   2.359       .  S
Zr524       O778   2.362   1_545  S
O525        H541   0.990       .  S
O526        H540   0.990       .  S
O526        H550   0.990       .  S
Zr527       O751   2.377   1_545  S
Zr527       O532   2.404       .  S
Zr527       O533   2.402       .  S
Zr528       O773   2.403       .  S
Zr528       O531   2.400       .  S
Zr528       O534   2.402       .  S
O529       Zr772   2.403   1_545  S
O529        H537   0.965       .  S
O531       Zr765   2.359       .  S
O532       Zr748   2.359   1_545  S
O532        H536   0.966       .  S
O533       Zr745   2.359   1_545  S
O533        H538   0.966       .  S
O534       Zr768   2.362       .  S
C551        C721   1.487   1_455  S
C551        C552   1.403   1_455  A
C551        C556   1.401       .  A
C552        C553   1.404       .  A
C552        H557   1.084       .  S
C554        C555   1.403       .  A
C554        H558   1.080       .  S
C556        H559   1.084       .  S
C560        C712   1.485       .  S
C560        C561   1.402       .  A
C560        C565   1.400       .  A
C561        C562   1.406       .  A
C561        H566   1.084       .  S
C562        C563   1.414       .  A
C563        C564   1.411   1_545  A
C563        H567   1.080   1_545  S
C564        C755   1.484       .  S
C564        C565   1.403   1_565  A
C565        H568   1.084   1_545  S
C569        C697   1.482       .  S
C569        C570   1.399   1_545  A
C569        C574   1.399       .  A
C570        C571   1.404       .  A
C570        H575   1.084       .  S
C571        C761   1.483       .  S
C571        C572   1.412   1_565  A
C572        C573   1.413       .  A
C572        H576   1.080       .  S
C573        C574   1.403       .  A
C574        H577   1.085       .  S
C578        C685   1.480       .  S
C578        C579   1.402       .  A
C578        C583   1.399   1_655  A
C579        C580   1.406       .  A
C579        H584   1.084       .  S
C580        C581   1.406   1_655  A
C581        C582   1.404       .  A
C582        C583   1.401       .  A
C583        H586   1.085       .  S
C587        C709   1.498       .  S
C587        C832   1.406   1_545  A
C587        C592   1.402       .  A
C588        C831   1.406       .  A
C588        C589   1.407       .  A
C588        H593   1.083       .  S
C589        C604   1.475       .  S
C589        C834   1.412       .  A
C590        C833   1.412   1_545  A
C590        C591   1.410       .  A
C590        H594   1.081       .  S
C591        C624   1.486       .  S
C591        C592   1.405       .  A
C592        H595   1.084       .  S
O596       Zr608   2.397       .  S
O596        C598   1.279       .  A
O597       Zr634   2.484   1_556  S
O597        C598   1.299       .  A
C598        C669   1.475       .  S
O599       Zr611   2.394       .  S
O599        C601   1.279       .  A
O600       Zr635   2.457       .  S
O600        C601   1.293       .  A
C601        C660   1.458       .  S
O602       Zr611   2.402       .  S
O602        C604   1.280       .  A
O603       Zr634   2.480       .  S
O603        C604   1.298       .  A
O605       Zr608   2.407       .  S
O605        C607   1.282       .  A
O606       Zr635   2.452   1_556  S
O606        C607   1.292       .  A
C607        C678   1.460       .  S
Zr608       O609   2.434       .  S
Zr608       O610   2.433       .  S
Zr608       O614   2.358   1_556  S
Zr608       O615   2.353   1_556  S
Zr608       O638   2.360       .  S
Zr608       O640   2.365       .  S
O609        H652   0.990       .  S
O610        H651   0.990       .  S
O610        H655   0.990       .  S
Zr611       O612   2.438       .  S
Zr611       O613   2.436       .  S
Zr611       O615   2.358       .  S
Zr611       O614   2.355       .  S
Zr611       O639   2.359       .  S
Zr611       O641   2.362       .  S
O612        H653   0.990       .  S
O612        H656   0.990       .  S
O613        H646   0.990       .  S
O614       Zr634   2.385       .  S
O615       Zr635   2.401       .  S
O615        H642   0.965       .  S
O616       Zr628   2.404       .  S
O616        C618   1.277       .  A
O617       Zr635   2.463   1_556  S
O617        C618   1.289       .  A
C618        C671   1.481       .  S
O619       Zr631   2.377       .  S
O619        C621   1.276       .  A
O620       Zr634   2.488       .  S
O620        C621   1.299       .  A
C621        C662   1.468       .  S
O622       Zr631   2.407       .  S
O622        C624   1.275       .  A
O623       Zr635   2.467       .  S
O623        C624   1.289       .  A
O625       Zr628   2.383       .  S
O625        C627   1.277       .  A
O626       Zr634   2.484   1_556  S
O626        C627   1.298       .  A
C627        C680   1.471       .  S
Zr628       O629   2.438       .  S
Zr628       O630   2.434       .  S
Zr628       O636   2.357   1_556  S
Zr628       O637   2.364   1_556  S
Zr628       O640   2.367       .  S
Zr628       O638   2.362       .  S
O629        H649   0.990       .  S
O629        H654   0.990       .  S
O630        H650   0.990       .  S
Zr631       O632   2.435       .  S
Zr631       O633   2.429       .  S
Zr631       O637   2.367       .  S
Zr631       O636   2.354       .  S
Zr631       O641   2.355       .  S
Zr631       O639   2.368       .  S
O632        H648   0.990       .  S
O633        H647   0.990       .  S
O633        H657   0.990       .  S
Zr634       O637   2.387       .  S
Zr634       O639   2.402       .  S
Zr634       O640   2.403   1_554  S
Zr635       O636   2.398       .  S
Zr635       O638   2.401   1_554  S
Zr635       O641   2.399       .  S
O636        H644   0.965       .  S
O639        H643   0.966       .  S
O640        H645   0.966       .  S
C658        C724   1.490       .  S
C658        C663   1.408       .  A
C659        C660   1.397       .  A
C659        H664   1.085       .  S
C661        C662   1.404       .  A
C661        H665   1.081       .  S
C662        C663   1.410       .  A
C663        H666   1.083       .  S
C667        C700   1.497       .  S
C667        C912   1.406   1_545  A
C667        C672   1.399       .  A
C668        C911   1.406       .  A
C668        C669   1.407       .  A
C668        H673   1.084       .  S
C669        C914   1.411       .  A
C670        C913   1.411   1_545  A
C670        C671   1.410       .  A
C670        H674   1.081       .  S
C671        C672   1.403       .  A
C672        H675   1.083       .  S
C676        C688   1.504       .  S
C676        C681   1.413       .  A
C677        C678   1.397       .  A
C677        H682   1.081       .  S
C679        C680   1.401       .  A
C679        H683   1.081       .  S
C680        C681   1.410       .  A
C681        H684   1.083       .  S
C685        C690   1.408       .  A
C686        C687   1.396       .  A
C686        H691   1.086       .  S
C687        C694   1.442       .  S
C688        C689   1.412       .  A
C689        C690   1.404       .  A
C689        H692   1.083       .  S
C690        C693   1.444       .  S
C693        N695   1.157       .  T
C694        N696   1.156       .  T
C697        C698   1.399       .  A
C697        C946   1.411   1_545  A
C698        C699   1.398       .  A
C698        H703   1.085       .  S
C699        C700   1.422       .  A
C699        C706   1.445       .  S
C700        C945   1.408       .  A
C701        C944   1.408       .  A
C701        C702   1.402       .  A
C701        H704   1.084       .  S
C702        C941   1.411       .  A
C702        C705   1.444       .  S
C705        N707   1.157       .  T
C706        N708   1.158       .  T
C709        C710   1.409       .  A
C709        C958   1.418       .  A
C710        C711   1.397       .  A
C710        H715   1.084       .  S
C711        C712   1.409       .  A
C711        C718   1.445       .  S
C712        C957   1.404       .  A
C713        C956   1.404       .  A
C713        C714   1.405       .  A
C713        H716   1.085       .  S
C714        C953   1.418       .  A
C714        C717   1.443       .  S
C717        N719   1.157       .  T
C718        N720   1.157       .  T
C721        C722   1.404       .  A
C722        C723   1.400       .  A
C722        H727   1.085       .  S
C723        C724   1.412       .  A
C723        C730   1.440       .  S
C725        C726   1.399       .  A
C725        H728   1.085       .  S
C726        C729   1.445       .  S
C729        N731   1.157       .  T
C730        N732   1.156       .  T
O733       Zr745   2.393       .  S
O734       Zr771   2.485       .  S
O734        C735   1.299       .  A
C735        C806   1.474       .  S
O736       Zr748   2.389       .  S
O737       Zr772   2.465       .  S
O737        C738   1.295       .  A
O739       Zr748   2.391       .  S
O740       Zr771   2.480       .  S
O740        C741   1.297       .  A
C741        C817   1.471       .  S
O742       Zr745   2.382       .  S
O743       Zr772   2.467       .  S
O743        C744   1.295       .  A
C744        C799   1.461       .  S
Zr745       O746   2.434       .  S
Zr745       O747   2.436       .  S
Zr745       O751   2.351       .  S
Zr745       O752   2.358       .  S
O746        H789   0.990       .  S
O747        H788   0.990       .  S
O747        H792   0.990       .  S
Zr748       O749   2.439       .  S
Zr748       O750   2.435       .  S
Zr748       O752   2.357       .  S
Zr748       O751   2.354       .  S
O749        H790   0.990       .  S
O749        H793   0.990       .  S
O750        H783   0.990       .  S
O752        H779   0.965       .  S
O753       Zr765   2.410       .  S
O754       Zr772   2.470       .  S
O754        C755   1.290       .  A
O756       Zr768   2.389       .  S
O757       Zr771   2.473       .  S
O757        C758   1.297       .  A
C758        C824   1.465       .  S
O759       Zr768   2.411       .  S
O760       Zr772   2.470       .  S
O760        C761   1.291       .  A
O762       Zr765   2.381       .  S
O763       Zr771   2.474       .  S
O763        C764   1.297       .  A
C764        C797   1.463       .  S
Zr765       O766   2.439       .  S
Zr765       O767   2.434       .  S
Zr765       O773   2.359       .  S
Zr765       O774   2.364       .  S
O766        H786   0.989       .  S
O766        H791   0.990       .  S
O767        H787   0.990       .  S
Zr768       O769   2.435       .  S
Zr768       O770   2.436       .  S
Zr768       O774   2.362       .  S
Zr768       O773   2.359       .  S
O769        H785   0.990       .  S
O770        H784   0.990       .  S
O770        H794   0.990       .  S
Zr771       O776   2.404       .  S
Zr771       O777   2.402       .  S
Zr772       O775   2.400       .  S
Zr772       O778   2.402       .  S
O773        H781   0.965       .  S
O776        H780   0.966       .  S
O777        H782   0.966       .  S
C795        C965   1.487   1_455  S
C795        C796   1.403   1_455  A
C795        C800   1.401       .  A
C796        C797   1.404       .  A
C796        H801   1.084       .  S
C798        C799   1.403       .  A
C798        H802   1.080       .  S
C800        H803   1.084       .  S
C804        C956   1.485       .  S
C804        C805   1.402       .  A
C804        C809   1.400       .  A
C805        C806   1.406       .  A
C805        H810   1.084       .  S
C806        C807   1.414       .  A
C807        C808   1.411       .  A
C807        H811   1.080       .  S
C808        C809   1.403       .  A
C809        H812   1.084       .  S
C813        C941   1.482       .  S
C813        C814   1.399       .  A
C813        C818   1.399       .  A
C814        C815   1.404       .  A
C814        H819   1.084       .  S
C815        C816   1.412       .  A
C816        C817   1.413       .  A
C816        H820   1.080       .  S
C817        C818   1.403       .  A
C818        H821   1.085       .  S
C822        C929   1.480       .  S
C822        C823   1.402       .  A
C822        C827   1.399   1_655  A
C823        C824   1.406       .  A
C823        H828   1.084       .  S
C824        C825   1.406   1_655  A
C825        C826   1.404       .  A
C826        C827   1.401       .  A
C827        H830   1.085       .  S
C831        C953   1.498       .  S
C831        C836   1.402       .  A
C832        C833   1.407       .  A
C832        H837   1.083       .  S
C833        C848   1.475       .  S
C834        C835   1.410       .  A
C834        H838   1.081       .  S
C835        C868   1.486       .  S
C835        C836   1.405       .  A
C836        H839   1.084       .  S
O840       Zr852   2.397       .  S
O840        C842   1.279       .  A
O841       Zr878   2.484   1_556  S
O841        C842   1.299       .  A
C842        C913   1.475       .  S
O843       Zr855   2.394       .  S
O843        C845   1.279       .  A
O844       Zr879   2.457       .  S
O844        C845   1.293       .  A
C845        C904   1.458       .  S
O846       Zr855   2.402       .  S
O846        C848   1.280       .  A
O847       Zr878   2.480       .  S
O847        C848   1.298       .  A
O849       Zr852   2.407       .  S
O849        C851   1.282       .  A
O850       Zr879   2.452   1_556  S
O850        C851   1.292       .  A
C851        C922   1.460       .  S
Zr852       O853   2.434       .  S
Zr852       O854   2.433       .  S
Zr852       O858   2.358   1_556  S
Zr852       O859   2.353   1_556  S
Zr852       O882   2.360       .  S
Zr852       O884   2.365       .  S
O853        H896   0.990       .  S
O854        H895   0.990       .  S
O854        H899   0.990       .  S
Zr855       O856   2.438       .  S
Zr855       O857   2.436       .  S
Zr855       O859   2.358       .  S
Zr855       O858   2.355       .  S
Zr855       O883   2.359       .  S
Zr855       O885   2.362       .  S
O856        H897   0.990       .  S
O856        H900   0.990       .  S
O857        H890   0.990       .  S
O858       Zr878   2.385       .  S
O859       Zr879   2.401       .  S
O859        H886   0.965       .  S
O860       Zr872   2.404       .  S
O860        C862   1.277       .  A
O861       Zr879   2.463   1_556  S
O861        C862   1.289       .  A
C862        C915   1.481       .  S
O863       Zr875   2.377       .  S
O863        C865   1.276       .  A
O864       Zr878   2.488       .  S
O864        C865   1.299       .  A
C865        C906   1.468       .  S
O866       Zr875   2.407       .  S
O866        C868   1.275       .  A
O867       Zr879   2.467       .  S
O867        C868   1.289       .  A
O869       Zr872   2.383       .  S
O869        C871   1.277       .  A
O870       Zr878   2.484   1_556  S
O870        C871   1.298       .  A
C871        C924   1.471       .  S
Zr872       O873   2.438       .  S
Zr872       O874   2.434       .  S
Zr872       O880   2.357   1_556  S
Zr872       O881   2.364   1_556  S
Zr872       O884   2.367       .  S
Zr872       O882   2.362       .  S
O873        H893   0.990       .  S
O873        H898   0.990       .  S
O874        H894   0.990       .  S
Zr875       O876   2.435       .  S
Zr875       O877   2.429       .  S
Zr875       O881   2.367       .  S
Zr875       O880   2.354       .  S
Zr875       O885   2.355       .  S
Zr875       O883   2.368       .  S
O876        H892   0.990       .  S
O877        H891   0.990       .  S
O877        H901   0.990       .  S
Zr878       O881   2.387       .  S
Zr878       O883   2.402       .  S
Zr878       O884   2.403   1_554  S
Zr879       O880   2.398       .  S
Zr879       O882   2.401   1_554  S
Zr879       O885   2.399       .  S
O880        H888   0.965       .  S
O883        H887   0.966       .  S
O884        H889   0.966       .  S
C902        C968   1.490       .  S
C902        C907   1.408       .  A
C903        C904   1.397       .  A
C903        H908   1.085       .  S
C905        C906   1.404       .  A
C905        H909   1.081       .  S
C906        C907   1.410       .  A
C907        H910   1.083       .  S
C911        C944   1.497       .  S
C911        C916   1.399       .  A
C912        C913   1.407       .  A
C912        H917   1.084       .  S
C914        C915   1.410       .  A
C914        H918   1.081       .  S
C915        C916   1.403       .  A
C916        H919   1.083       .  S
C920        C932   1.504       .  S
C920        C925   1.413       .  A
C921        C922   1.397       .  A
C921        H926   1.081       .  S
C923        C924   1.401       .  A
C923        H927   1.081       .  S
C924        C925   1.410       .  A
C925        H928   1.083       .  S
C929        C934   1.408       .  A
C930        C931   1.396       .  A
C930        H935   1.086       .  S
C931        C938   1.442       .  S
C932        C933   1.412       .  A
C933        C934   1.404       .  A
C933        H936   1.083       .  S
C934        C937   1.444       .  S
C937        N939   1.157       .  T
C938        N940   1.156       .  T
C941        C942   1.399       .  A
C942        C943   1.398       .  A
C942        H947   1.085       .  S
C943        C944   1.422       .  A
C943        C950   1.445       .  S
C945        C946   1.402   1_545  A
C945        H948   1.084   1_545  S
C946        C949   1.444       .  S
C949        N951   1.157       .  T
C950        N952   1.158       .  T
C953        C954   1.409       .  A
C954        C955   1.397       .  A
C954        H959   1.084       .  S
C955        C956   1.409       .  A
C955        C962   1.445       .  S
C957        C958   1.405       .  A
C957        H960   1.085   1_545  S
C958        C961   1.443   1_545  S
C961        N963   1.157       .  T
C962        N964   1.157       .  T
C965        C966   1.404       .  A
C966        C967   1.400       .  A
C966        H971   1.085       .  S
C967        C968   1.412       .  A
C967        C974   1.440       .  S
C969        C970   1.399       .  A
C969        H972   1.085       .  S
C970        C973   1.445       .  S
C973        N975   1.157       .  T
C974        N976   1.156       .  T
