geometry optimzed in LAMMPS
_audit_creation_date              2020-11-30 
_audit_creation_method            'lammps2cif' 
_symmetry_space_group_name_H-M    'P1' 
_symmetry_Int_Tables_number       1 
_symmetry_cell_setting            triclinic 
loop_ 
_symmetry_equiv_pos_as_xyz 
  x,y,z 
_cell_length_a                    29.1370951 
_cell_length_b                    55.152569454515245 
_cell_length_c                    27.79230776324307 
_cell_angle_alpha                 90.08925790172562 
_cell_angle_beta                  89.80988495089954 
_cell_angle_gamma                 119.92971309035545 
loop_ 
_atom_site_label 
_atom_site_type_symbol 
_atom_site_fract_x 
_atom_site_fract_y 
_atom_site_fract_z 
_atom_site_charge 
C1          C  0.87679959  0.31510638  0.00249916     0.86200
C2          C  0.85804976  0.29601861  0.04698615    -0.54000
C3          C  0.80466557  0.27794191  0.04877051     0.09100
C4          C  0.77440721  0.28085751  0.00594844     0.20100
C5          C  0.85474953  0.29491436  0.45945981    -0.54700
C6          C  0.80128262  0.27664500  0.46137385     0.09200
C7          C  0.84335446  0.32971436  0.00280632    -0.54300
C8          C  0.79001466  0.31200574  0.50520821     0.09800
H9          H  0.88506309  0.29635719  0.07416913     0.14300
H10         H  0.73103105  0.26646414  0.00733465     0.00100
H11         H  0.87983237  0.29451860  0.43086016     0.14600
H12         H  0.85916624  0.35195864  0.99905640     0.14400
C13         C  0.11155494  0.38425248  0.99821206     0.86200
C14         C  0.13388790  0.37668379  0.45424267    -0.54000
C15         C  0.18770536  0.38858903  0.45367356     0.09100
C16         C  0.21526121  0.40781147  0.99716121     0.23500
C17         C  0.13485162  0.37681270  0.04149683    -0.54700
C18         C  0.18890397  0.38884233  0.04124057     0.09200
C19         C  0.14110913  0.41649159  0.99785738    -0.54300
C20         C  0.19514568  0.42891083  0.99836818     0.09800
H21         H  0.10892929  0.36173751  0.42710191     0.14300
H22         H  0.25901643  0.41787274  0.99666787     0.00100
H23         H  0.10995255  0.36227086  0.06918360     0.14600
H24         H  0.12274876  0.42925973  0.99663027     0.14400
C25         C  0.30956668  0.09478545  0.00147173     0.86200
C26         C  0.34841666  0.10363837  0.04382369    -0.54000
C27         C  0.37892291  0.09113436  0.04451741     0.09100
C28         C  0.36722073  0.07052488  0.00276609     0.20100
C29         C  0.34435865  0.10035621  0.45630325    -0.54700
C30         C  0.37506206  0.08797136  0.45715269     0.09200
C31         C  0.27753785  0.06261148  0.00394499    -0.54300
C32         C  0.30740798  0.04986931  0.00545119     0.09800
H33         H  0.35178087  0.11878190  0.07063515     0.14300
H34         H  0.39142325  0.06014582  0.00311443     0.00100
H35         H  0.34529292  0.11310407  0.42640686     0.14600
H36         H  0.23459345  0.05074197  0.00293345     0.14400
C37         C  0.07885182  0.13756435  0.49678578     0.86200
C38         C  0.09856431  0.15859130  0.03844518    -0.54000
C39         C  0.15186251  0.17646512  0.03848385     0.09100
C40         C  0.18127025  0.17177547  0.49679642     0.20100
C41         C  0.10001211  0.15564413  0.45114208    -0.54700
C42         C  0.15337332  0.17414602  0.45147106     0.09200
C43         C  0.11205111  0.12286688  0.49981272    -0.54300
C44         C  0.16570890  0.14065855  0.50039723     0.09800
H45         H  0.07234307  0.15946119  0.06541983     0.14300
H46         H  0.22453814  0.18665615  0.49732816     0.00100
H47         H  0.07449824  0.15435903  0.42170815     0.14600
H48         H  0.09543433  0.10042092  0.49921972     0.14400
C49         C  0.84452252  0.07010706  0.50217866     0.86200
C50         C  0.82042527  0.07870326  0.46104674    -0.54000
C51         C  0.76656110  0.06617855  0.46222789     0.09100
C52         C  0.74076015  0.04517736  0.00357903     0.20100
C53         C  0.82145128  0.07538832  0.04804380    -0.54700
C54         C  0.76728787  0.06255062  0.04916263     0.09200
C55         C  0.81672107  0.03805731  0.49740280    -0.54300
C56         C  0.76250641  0.02488408  0.99801302     0.09800
H57         H  0.84394414  0.09413874  0.43389993     0.14300
H58         H  0.69687106  0.03475208  0.00383428     0.00100
H59         H  0.84652533  0.08977874  0.07571862     0.14600
H60         H  0.83734422  0.02651039  0.49235963     0.14400
C61         C  0.64841504  0.35899940  0.99519050     0.86200
C62         C  0.61065695  0.35103475  0.03839809    -0.54000
C63         C  0.57987996  0.36323501  0.03833792     0.09100
C64         C  0.58930787  0.38248563  0.99511200     0.20100
C65         C  0.61262853  0.35202037  0.45061814    -0.54700
C66         C  0.58050163  0.36359602  0.45109566     0.09200
C67         C  0.67973194  0.39124154  0.99484430    -0.54300
C68         C  0.64918855  0.40368571  0.99483476     0.09800
H69         H  0.60754971  0.33639267  0.06606560     0.14300
H70         H  0.56374867  0.39211075  0.99561425     0.00100
H71         H  0.61358124  0.33989639  0.42036710     0.14600
H72         H  0.72267914  0.40331736  0.99371528     0.14400
O73         O  0.39568029  0.35205485  0.30259407    -0.82100
C74         C  0.25257140  0.26444090  0.17986468     0.97300
O75         O  0.28932336  0.26499637  0.20468133    -0.71200
O76         O  0.38170486  0.30879064  0.18680548    -0.74800
Al77       Al  0.34339789  0.29285145  0.24428878     1.49000
C78         C  0.41432220  0.33430625  0.17961381     0.92500
O79         O  0.32835217  0.35805079  0.18978045    -0.81000
O80         O  0.24860958  0.31880214  0.30550661    -0.74600
Al81       Al  0.35922978  0.35272271  0.24634533     1.90100
O82         O  0.24562951  0.33029055  0.21046780    -0.73600
O83         O  0.23074084  0.26875279  0.28419558    -0.73500
O84         O  0.23689316  0.28165706  0.18803789    -0.79100
O85         O  0.30822550  0.27395956  0.30180651    -0.77300
O86         O  0.31651993  0.31561894  0.24585608    -1.13500
O87         O  0.40327638  0.31567645  0.28338635    -0.72700
C88         C  0.41674976  0.33712128  0.30893976     0.98100
C89         C  0.27981140  0.34998069  0.18499018     0.94400
Al90       Al  0.24653627  0.30115896  0.24690314     1.55600
O91         O  0.41249667  0.35290576  0.20489145    -0.77300
C92         C  0.25898249  0.26212976  0.30908255     0.98600
C93         C  0.27469785  0.34468692  0.31382924     0.93500
O94         O  0.31488133  0.36048058  0.28840607    -0.82600
O95         O  0.56047813  0.10029748  0.30901289    -0.82100
C96         C  0.70435780  0.18938024  0.18982472     0.97300
O97         O  0.66842475  0.18892417  0.21616743    -0.71200
O98         O  0.57629730  0.14555665  0.19558659    -0.74800
Al99       Al  0.61291895  0.15995114  0.25392273     1.49000
C100        C  0.54408193  0.12021665  0.18642860     0.92500
O101        O  0.62828959  0.09531421  0.19561239    -0.81000
O102        O  0.70666162  0.13369729  0.31201995    -0.74600
Al103      Al  0.59701303  0.10019513  0.25243461     1.90100
O104        O  0.71077491  0.12263898  0.21682464    -0.73600
O105        O  0.72526067  0.18412272  0.29170475    -0.73500
O106        O  0.71881608  0.17145684  0.19556551    -0.79100
O107        O  0.64691292  0.17679379  0.31323659    -0.77300
O108        O  0.63961951  0.13716437  0.25320052    -1.13500
O109        O  0.55111763  0.13620150  0.29073319    -0.72700
C110        C  0.53817119  0.11456583  0.31535461     0.98100
C111        C  0.67675164  0.10324643  0.19083178     0.94400
Al112      Al  0.70948381  0.15166124  0.25390468     1.55600
O113        O  0.54491760  0.10094709  0.21058119    -0.77300
C114        C  0.69648283  0.18947094  0.31869231     0.98600
C115        C  0.67960336  0.10788958  0.32087586     0.93500
O116        O  0.64046116  0.09202366  0.29456928    -0.82600
C117        C  0.54202532  0.37571138  0.10832912    -0.21600
C118        C  0.53724529  0.35605785  0.07388325    -0.09600
C119        C  0.49163423  0.32950627  0.07344872     0.29200
C120        C  0.45144650  0.32271373  0.10740183    -0.21600
C121        C  0.45604374  0.34232173  0.14231179    -0.09600
C122        C  0.50191714  0.36901164  0.14233936     0.29200
F123        F  0.50899986  0.38835938  0.17613509    -0.20200
H124        H  0.57744697  0.39605175  0.10963037     0.17600
H125        H  0.41671374  0.30204422  0.10641372     0.17600
F126        F  0.48591485  0.31023889  0.03997393    -0.20100
C127        C  0.52598967  0.37748331  0.40040003    -0.21600
C128        C  0.53889627  0.35709956  0.41428647    -0.09600
C129        C  0.51021147  0.33011972  0.39419330     0.29200
C130        C  0.47074612  0.32403617  0.36032180    -0.21600
C131        C  0.45801211  0.34438869  0.34606754    -0.09600
C132        C  0.48581162  0.37123821  0.36676070     0.29200
F133        F  0.47506979  0.39161428  0.35387251    -0.20200
H134        H  0.54746737  0.39843361  0.41509517     0.17600
H135        H  0.44953205  0.30305690  0.34563771     0.17600
F136        F  0.51869437  0.30915285  0.40842484    -0.20100
C137        C  0.67618556  0.06737134  0.36560542    -0.21600
C138        C  0.69589572  0.09636417  0.36127497    -0.09600
C139        C  0.73427544  0.11457779  0.39434789     0.29200
C140        C  0.75525783  0.10422445  0.42812886    -0.21600
C141        C  0.73807486  0.07558632  0.43038336    -0.09600
C142        C  0.69698179  0.05698892  0.40018614     0.29200
F143        F  0.67931828  0.02911498  0.40217885    -0.20200
H144        H  0.64626392  0.05286227  0.34104216     0.17600
H145        H  0.78606773  0.11875007  0.45205650     0.17600
F146        F  0.75268376  0.14256222  0.39351773    -0.20100
C147        C  0.69607516  0.07300767  0.07478685    -0.21600
C148        C  0.73858969  0.06893562  0.08714644    -0.09600
C149        C  0.75652813  0.07365505  0.13508576     0.29200
C150        C  0.73528974  0.08426979  0.16861712    -0.21600
C151        C  0.69468117  0.08960117  0.15567123    -0.09600
C152        C  0.67388525  0.08301240  0.10886671     0.29200
F153        F  0.63452236  0.08790382  0.09527134    -0.20200
H154        H  0.68162250  0.06977416  0.03816837     0.17600
H155        H  0.75092592  0.08855524  0.20488930     0.17600
F156        F  0.79496780  0.06825122  0.14957704    -0.20100
C157        C  0.68324951  0.47881023  0.02105347    -0.21600
C158        C  0.72886963  0.99395445  0.99261085    -0.09600
C159        C  0.74386226  0.47911939  0.46098850     0.29200
C160        C  0.71655036  0.44991765  0.46093863    -0.21600
C161        C  0.67306899  0.43466538  0.99166308    -0.09600
C162        C  0.65530532  0.44940648  0.02043497     0.29200
F163        F  0.61288584  0.43557272  0.04991935    -0.20200
H164        H  0.67054900  0.48969884  0.04536005     0.17600
H165        H  0.72988102  0.43913487  0.43703745     0.17600
F166        F  0.78497608  0.99278437  0.42992674    -0.20100
C167        C  0.24835147  0.22525955  0.13135509    -0.21600
C168        C  0.22734616  0.24276665  0.14208903    -0.09600
C169        C  0.18150852  0.23843325  0.11777130     0.29200
C170        C  0.15710462  0.21677936  0.08420821    -0.21600
C171        C  0.17813600  0.19931322  0.07393253    -0.09600
C172        C  0.22415124  0.20380712  0.09755223     0.29200
F173        F  0.24462787  0.18681785  0.08930058    -0.20200
H174        H  0.28342169  0.22795034  0.14952284     0.17600
H175        H  0.12183911  0.21373792  0.06591184     0.17600
F176        F  0.15972497  0.25474610  0.12675197    -0.20100
C177        C  0.23242128  0.20490897  0.39991555    -0.21600
C178        C  0.18045841  0.19658287  0.41467145    -0.09600
C179        C  0.15553615  0.21071654  0.39555161     0.29200
C180        C  0.18152992  0.23196488  0.36158405    -0.21600
C181        C  0.23321196  0.24002281  0.34626087    -0.09600
C182        C  0.25866538  0.22636753  0.36610240     0.29200
F183        F  0.30841801  0.23325732  0.35219790    -0.20200
H184        H  0.25268492  0.19457937  0.41400981     0.17600
H185        H  0.16120171  0.24238616  0.34763180     0.17600
F186        F  0.10677159  0.20483618  0.41088693    -0.20100
C187        C  0.93146124  0.11555281  0.99237969    -0.21600
C188        C  0.90540322  0.08659562  0.50196155    -0.09600
C189        C  0.93717969  0.07481283  0.51420079     0.29200
C190        C  0.99254184  0.09079735  0.51153533    -0.21600
C191        C  0.01833740  0.11922579  0.49806066    -0.09600
C192        C  0.98664137  0.13153869  0.99012031     0.29200
F193        F  0.00907704  0.15933335  0.98083526    -0.20200
H194        H  0.90894679  0.12605124  0.98657364     0.17600
H195        H  0.01451900  0.08078111  0.52237114     0.17600
F196        F  0.91588778  0.04856551  0.53222051    -0.20100
C197        C  0.45411448  0.12633181  0.09443100    -0.21600
C198        C  0.42189305  0.09838739  0.08012577    -0.09600
C199        C  0.43170909  0.07783648  0.09946230     0.29200
C200        C  0.47207162  0.08514315  0.13326139    -0.21600
C201        C  0.50371936  0.11304798  0.14826744    -0.09600
C202        C  0.49464634  0.13369058  0.12790532     0.29200
F203        F  0.52407757  0.16097829  0.14089729    -0.20200
H204        H  0.44815024  0.14265351  0.07939041     0.17600
H205        H  0.47809707  0.06881203  0.14816619     0.17600
F206        F  0.40108358  0.05050278  0.08731088    -0.20100
C207        C  0.46365259  0.09485484  0.43311026    -0.21600
C208        C  0.41522366  0.09272272  0.41963939    -0.09600
C209        C  0.40690664  0.09629331  0.37085790     0.29200
C210        C  0.44722582  0.10328677  0.33713467    -0.21600
C211        C  0.49560283  0.10581519  0.35097781    -0.09600
C212        C  0.50332423  0.10100061  0.39896840     0.29200
F213        F  0.55013556  0.10363749  0.41319859    -0.20200
H214        H  0.47169896  0.09268802  0.47037164     0.17600
H215        H  0.44056499  0.10652258  0.29993791     0.17600
F216        F  0.35971004  0.09260918  0.35542857    -0.20100
C217        C  0.22870833  0.09655036  0.03182688    -0.21600
C218        C  0.27483080  0.10856268  0.00307237    -0.09600
C219        C  0.28808859  0.13379059  0.47888638     0.29200
C220        C  0.25293158  0.14422303  0.47871173    -0.21600
C221        C  0.20456300  0.13049027  0.50364364    -0.09600
C222        C  0.19379657  0.10702718  0.03171735     0.29200
F223        F  0.15005507  0.09443214  0.06013281    -0.20200
H224        H  0.21912161  0.07869374  0.05449295     0.17600
H225        H  0.26357832  0.16296304  0.45840329     0.17600
F226        F  0.33551472  0.14917638  0.45665868    -0.20100
C227        C  0.19729980  0.34977371  0.41955486    -0.21600
C228        C  0.21397691  0.37841112  0.42014295    -0.09600
C229        C  0.25266639  0.39622647  0.38713470     0.29200
C230        C  0.27390707  0.38537532  0.35372762    -0.21600
C231        C  0.25623546  0.35652145  0.35230096    -0.09600
C232        C  0.21788172  0.33883745  0.38605454     0.29200
F233        F  0.19949624  0.31085661  0.38643339    -0.20200
H234        H  0.16743034  0.33571464  0.44478717     0.17600
H235        H  0.30267497  0.39940610  0.32775152     0.17600
F236        F  0.26749604  0.42370358  0.38510751    -0.20100
C237        C  0.19782912  0.37729057  0.12654934    -0.21600
C238        C  0.21765828  0.38258911  0.07920160    -0.09600
C239        C  0.26212107  0.37974715  0.06837489     0.29200
C240        C  0.28422942  0.37054724  0.10370547    -0.21600
C241        C  0.26177113  0.36346158  0.14985887    -0.09600
C242        C  0.21913127  0.36755268  0.16133018     0.29200
F243        F  0.19767335  0.36187964  0.20619806    -0.20200
H244        H  0.16480463  0.38007744  0.13654888     0.17600
H245        H  0.31706336  0.36746904  0.09422514     0.17600
F246        F  0.28213018  0.38389085  0.02309589    -0.20100
C247        C  0.30296614  0.50500175  0.47969468    -0.21600
C248        C  0.28324958  0.01894926  0.00797954    -0.09600
C249        C  0.23882916  0.50306828  0.03728219     0.29200
C250        C  0.21207175  0.47393952  0.03510356    -0.21600
C251        C  0.22914280  0.45982629  0.00411039    -0.09600
C252        C  0.27626696  0.47563914  0.47787722     0.29200
F253        F  0.29548210  0.46301634  0.44889812    -0.20200
H254        H  0.33777838  0.01682398  0.45734977     0.17600
H255        H  0.17722036  0.46233397  0.05739248     0.17600
F256        F  0.22048018  0.01563946  0.06767026    -0.20100
C257        C  0.70569692  0.20647228  0.40345847    -0.21600
C258        C  0.72186180  0.21162589  0.35521095    -0.09600
C259        C  0.76377445  0.23801908  0.34200841     0.29200
C260        C  0.78857589  0.25908446  0.37645623    -0.21600
C261        C  0.77298457  0.25409513  0.42502383    -0.09600
C262        C  0.73152237  0.22732745  0.43834100     0.29200
F263        F  0.71750891  0.22074935  0.48515373    -0.20200
H264        H  0.67418323  0.18599780  0.41432712     0.17600
H265        H  0.81996417  0.27942286  0.36496238     0.17600
F266        F  0.78000686  0.24360249  0.29546878    -0.20100
C267        C  0.80384544  0.24039245  0.09979402    -0.21600
C268        C  0.77933683  0.25566460  0.08568397    -0.09600
C269        C  0.73004744  0.24884204  0.10578032     0.29200
C270        C  0.70585602  0.22712109  0.13922588    -0.21600
C271        C  0.73012823  0.21168339  0.15317691    -0.09600
C272        C  0.77958845  0.21858369  0.13311750     0.29200
F273        F  0.80507683  0.20468603  0.14625027    -0.20200
H274        H  0.84160974  0.24508478  0.08443351     0.17600
H275        H  0.66795741  0.22240725  0.15430714     0.17600
F276        F  0.70587207  0.26364384  0.09422646    -0.20100
C277        C  0.96267417  0.36319853  0.00627349    -0.21600
C278        C  0.93737199  0.33389111  0.00122108    -0.09600
C279        C  0.96979511  0.32170718  0.49659379     0.29200
C280        C  0.02501940  0.33835313  0.49566735    -0.21600
C281        C  0.05050092  0.36783530  0.99946514    -0.09600
C282        C  0.01789483  0.37990323  0.00558819     0.29200
F283        F  0.03766912  0.40755754  0.01327338    -0.20200
H284        H  0.94077457  0.37383972  0.01241473     0.17600
H285        H  0.04829443  0.32809588  0.49193728     0.17600
F286        F  0.94806263  0.29352818  0.49316008    -0.20100
C287        C  0.72849614  0.35773503  0.02780803    -0.21600
C288        C  0.68332971  0.34540777  0.99815592    -0.09600
C289        C  0.67005822  0.31955734  0.47608238     0.29200
C290        C  0.70431150  0.30858456  0.47909612    -0.21600
C291        C  0.75145995  0.32238482  0.00537068    -0.09600
C292        C  0.76227351  0.34665149  0.03110785     0.29200
F293        F  0.80504203  0.35946336  0.06043716    -0.20200
H294        H  0.73797276  0.37619816  0.04877493     0.17600
H295        H  0.69406224  0.28935294  0.46022258     0.17600
F296        F  0.62330501  0.30407216  0.45308150    -0.20100
C297        C  0.87682604  0.31508273  0.50252430     0.86200
C298        C  0.85804286  0.29595581  0.54694852    -0.54000
C299        C  0.80465228  0.27791135  0.54872761     0.09100
C300        C  0.77442316  0.28088248  0.50593637     0.20100
C301        C  0.85476010  0.29489134  0.95950349    -0.54700
C302        C  0.80129630  0.27661074  0.96141683     0.09200
C303        C  0.84345958  0.32973032  0.50287908    -0.54300
C304        C  0.78992608  0.31196541  0.00515928     0.09800
H305        H  0.88504414  0.29625523  0.57410687     0.14300
H306        H  0.73104116  0.26650451  0.50731266     0.00100
H307        H  0.87987266  0.29448198  0.93094533     0.14600
H308        H  0.85938767  0.35199134  0.49907639     0.14400
C309        C  0.11152315  0.38418033  0.49826394     0.86200
C310        C  0.13391391  0.37675361  0.95419493    -0.54000
C311        C  0.18772601  0.38862878  0.95365051     0.09100
C312        C  0.21523091  0.40782214  0.49713833     0.23500
C313        C  0.13489651  0.37680018  0.54154409    -0.54700
C314        C  0.18895233  0.38887933  0.54126135     0.09200
C315        C  0.14095601  0.41641226  0.49776483    -0.54300
C316        C  0.19500732  0.42888208  0.49827778     0.09800
H317        H  0.10894032  0.36181856  0.92704657     0.14300
H318        H  0.25899025  0.41791352  0.49662869     0.00100
H319        H  0.11004202  0.36225634  0.56924894     0.14600
H320        H  0.12243982  0.42910898  0.49625644     0.14400
C321        C  0.30957176  0.09477511  0.50147879     0.86200
C322        C  0.34845579  0.10366289  0.54380934    -0.54000
C323        C  0.37899295  0.09117706  0.54450526     0.09100
C324        C  0.36730553  0.07056130  0.50277308     0.20100
C325        C  0.34437986  0.10037017  0.95631519    -0.54700
C326        C  0.37503903  0.08795913  0.95715861     0.09200
C327        C  0.27759065  0.06259855  0.50400047    -0.54300
C328        C  0.30751500  0.04988588  0.50549707     0.09800
H329        H  0.35180318  0.11880571  0.57061481     0.14300
H330        H  0.39153684  0.06019864  0.50311949     0.00100
H331        H  0.34536077  0.11313694  0.92643168     0.14600
H332        H  0.23464592  0.05070491  0.50304266     0.14400
C333        C  0.07883906  0.13756702  0.99673110     0.86200
C334        C  0.09857447  0.15859104  0.53849608    -0.54000
C335        C  0.15187244  0.17646673  0.53853516     0.09100
C336        C  0.18125784  0.17177781  0.99674094     0.20100
C337        C  0.09999878  0.15565017  0.95108978    -0.54700
C338        C  0.15336024  0.17415259  0.95141984     0.09200
C339        C  0.11203844  0.12286891  0.99975073    -0.54300
C340        C  0.16569683  0.14066140  0.00033486     0.09800
H341        H  0.07235038  0.15946179  0.56546659     0.14300
H342        H  0.22452594  0.18665839  0.99727646     0.00100
H343        H  0.07448476  0.15436803  0.92165841     0.14600
H344        H  0.09542042  0.10042270  0.99916108     0.14400
C345        C  0.84450805  0.07011405  0.00216778     0.86200
C346        C  0.82040367  0.07870869  0.96103994    -0.54000
C347        C  0.76654014  0.06618263  0.96222766     0.09100
C348        C  0.74077469  0.04517225  0.50357909     0.20100
C349        C  0.82146105  0.07538164  0.54805128    -0.54700
C350        C  0.76729846  0.06254646  0.54916343     0.09200
C351        C  0.81670737  0.03806414  0.99739299    -0.54300
C352        C  0.76252084  0.02487740  0.49801943     0.09800
H353        H  0.84391644  0.09414285  0.93388877     0.14300
H354        H  0.69688558  0.03474792  0.50383274     0.00100
H355        H  0.84653148  0.08977160  0.57572848     0.14600
H356        H  0.83733280  0.02651851  0.99234774     0.14400
C357        C  0.64845844  0.35901927  0.49517829     0.86200
C358        C  0.61068178  0.35104520  0.53837570    -0.54000
C359        C  0.57988801  0.36323675  0.53830402     0.09100
C360        C  0.58931946  0.38248784  0.49507699     0.20100
C361        C  0.61257375  0.35200423  0.95064190    -0.54700
C362        C  0.58046345  0.36358948  0.95113080     0.09200
C363        C  0.67975383  0.39126033  0.49483883    -0.54300
C364        C  0.64919657  0.40369605  0.49481422     0.09800
H365        H  0.60758142  0.33640712  0.56604817     0.14300
H366        H  0.56374778  0.39210553  0.49556865     0.00100
H367        H  0.61350803  0.33987567  0.92038970     0.14600
H368        H  0.72270070  0.40334262  0.49372123     0.14400
O369        O  0.39569725  0.35208627  0.80259809    -0.82100
C370        C  0.25257820  0.26447048  0.67987573     0.97300
O371        O  0.28933424  0.26502960  0.70468990    -0.71200
O372        O  0.38172213  0.30881694  0.68680441    -0.74800
Al373      Al  0.34341134  0.29288358  0.74429164     1.49000
C374        C  0.41435303  0.33433069  0.67961172     0.92500
O375        O  0.32841951  0.35809026  0.68976297    -0.81000
O376        O  0.24864641  0.31885943  0.80549072    -0.74600
Al377      Al  0.35927315  0.35276008  0.74633664     1.90100
O378        O  0.24568784  0.33033890  0.71044096    -0.73600
O379        O  0.23075496  0.26880183  0.78420645    -0.73500
O380        O  0.23690575  0.28169010  0.68803962    -0.79100
O381        O  0.30823194  0.27399546  0.80180980    -0.77300
O382        O  0.31654685  0.31565684  0.74585108    -1.13500
O383        O  0.40328928  0.31570634  0.78339046    -0.72700
C384        C  0.41675567  0.33714812  0.80895067     0.98100
C385        C  0.27988334  0.35002840  0.68496948     0.94400
Al386      Al  0.24656563  0.30120537  0.74689567     1.55600
O387        O  0.41254503  0.35293332  0.70489584    -0.77300
C388        C  0.25898936  0.26217058  0.80908706     0.98600
C389        C  0.27473924  0.34474538  0.81380162     0.93500
O390        O  0.31492607  0.36053305  0.78837748    -0.82600
O391        O  0.56047168  0.10029645  0.80900494    -0.82100
C392        C  0.70435724  0.18937640  0.68982450     0.97300
O393        O  0.66844470  0.18893168  0.71618323    -0.71200
O394        O  0.57631845  0.14557502  0.69560154    -0.74800
Al395      Al  0.61293344  0.15995789  0.75393676     1.49000
C396        C  0.54410543  0.12023744  0.68643140     0.92500
O397        O  0.62829661  0.09532229  0.69559633    -0.81000
O398        O  0.70665946  0.13369548  0.81201536    -0.74600
Al399      Al  0.59701477  0.10019948  0.75242396     1.90100
O400        O  0.71077820  0.12263766  0.71682413    -0.73600
O401        O  0.72527070  0.18412146  0.79170057    -0.73500
O402        O  0.71881005  0.17145089  0.69556424    -0.79100
O403        O  0.64692639  0.17678939  0.81325210    -0.77300
O404        O  0.63962465  0.13716697  0.75320161    -1.13500
O405        O  0.55112564  0.13620709  0.79074507    -0.72700
C406        C  0.53817090  0.11456727  0.81535847     0.98100
C407        C  0.67675830  0.10325136  0.69082046     0.94400
Al408      Al  0.70948658  0.15165970  0.75390245     1.55600
O409        O  0.54493323  0.10096214  0.71057229    -0.77300
C410        C  0.69649631  0.18946500  0.81870124     0.98600
C411        C  0.67959421  0.10788776  0.82086888     0.93500
O412        O  0.64045570  0.09202305  0.79455723    -0.82600
C413        C  0.54203431  0.37572637  0.60828211    -0.21600
C414        C  0.53725506  0.35606428  0.57385377    -0.09600
C415        C  0.49164573  0.32951141  0.57343987     0.29200
C416        C  0.45146573  0.32272473  0.60740115    -0.21600
C417        C  0.45606690  0.34233986  0.64229924    -0.09600
C418        C  0.50193404  0.36903258  0.64229996     0.29200
F419        F  0.50901820  0.38839037  0.67607558    -0.20200
H420        H  0.57745040  0.39606983  0.60956335     0.17600
H421        H  0.41673585  0.30205382  0.60642873     0.17600
F422        F  0.48591883  0.31023728  0.53997617    -0.20100
C423        C  0.52596487  0.37748939  0.90044474    -0.21600
C424        C  0.53885407  0.35709913  0.91433069    -0.09600
C425        C  0.51015684  0.33012006  0.89423711     0.29200
C426        C  0.47070525  0.32404529  0.86035652    -0.21600
C427        C  0.45799607  0.34440577  0.84609494    -0.09600
C428        C  0.48579845  0.37125273  0.86679708     0.29200
F429        F  0.47507338  0.39163463  0.85390731    -0.20200
H430        H  0.54745029  0.39843867  0.91514338     0.17600
H431        H  0.44948418  0.30306703  0.84566889     0.17600
F432        F  0.51861762  0.30914637  0.90847330    -0.20100
C433        C  0.67617847  0.06736935  0.86559057    -0.21600
C434        C  0.69587471  0.09636124  0.86127205    -0.09600
C435        C  0.73423260  0.11457422  0.89436049     0.29200
C436        C  0.75521276  0.10422214  0.92814469    -0.21600
C437        C  0.73804754  0.07558603  0.93038593    -0.09600
C438        C  0.69697210  0.05698795  0.90017455     0.29200
F439        F  0.67932604  0.02911556  0.90215610    -0.20200
H440        H  0.64627286  0.05286112  0.84101466     0.17600
H441        H  0.78600919  0.11874725  0.95208335     0.17600
F442        F  0.75262330  0.14255707  0.89354112    -0.20100
C443        C  0.69611638  0.07303254  0.57476337    -0.21600
C444        C  0.73860168  0.06893897  0.58713798    -0.09600
C445        C  0.75651838  0.07364606  0.63508393     0.29200
C446        C  0.73527813  0.08426153  0.66861279    -0.21600
C447        C  0.69469253  0.08960923  0.65565614    -0.09600
C448        C  0.67392864  0.08304167  0.60883848     0.29200
F449        F  0.63460110  0.08795793  0.59522779    -0.20200
H450        H  0.68168650  0.06981168  0.53813764     0.17600
H451        H  0.75089472  0.08853451  0.70489210     0.17600
F452        F  0.79493883  0.06822918  0.64958391    -0.20100
C453        C  0.68321206  0.47881722  0.52099231    -0.21600
C454        C  0.72888894  0.99394588  0.49262784    -0.09600
C455        C  0.74381990  0.47910825  0.96096582     0.29200
C456        C  0.71651197  0.44990568  0.96092519    -0.21600
C457        C  0.67306779  0.43467483  0.49163444    -0.09600
C458        C  0.65526327  0.44941360  0.52036257     0.29200
F459        F  0.61279679  0.43557810  0.54979525    -0.20200
H460        H  0.67047804  0.48970321  0.54526955     0.17600
H461        H  0.72981264  0.43912021  0.93699799     0.17600
F462        F  0.78497042  0.99279476  0.92992129    -0.20100
C463        C  0.24838455  0.22529831  0.63135937    -0.21600
C464        C  0.22734677  0.24278835  0.64211277    -0.09600
C465        C  0.18147390  0.23842904  0.61782973     0.29200
C466        C  0.15707374  0.21676942  0.58427510    -0.21600
C467        C  0.17814057  0.19932126  0.57397665    -0.09600
C468        C  0.22418604  0.20383911  0.59756843     0.29200
F469        F  0.24469633  0.18686656  0.58930251    -0.20200
H470        H  0.28348111  0.22800816  0.64950240     0.17600
H471        H  0.12178268  0.21370960  0.56600348     0.17600
F472        F  0.15965130  0.25472056  0.62683941    -0.20100
C473        C  0.23241282  0.20492843  0.89988029    -0.21600
C474        C  0.18044587  0.19659657  0.91463106    -0.09600
C475        C  0.15552486  0.21073378  0.89552299     0.29200
C476        C  0.18152498  0.23199222  0.86157207    -0.21600
C477        C  0.23321196  0.24005645  0.84625457    -0.09600
C478        C  0.25866261  0.22639671  0.86608455     0.29200
F479        F  0.30841914  0.23329129  0.85218500    -0.20200
H480        H  0.25267516  0.19459649  0.91396528     0.17600
H481        H  0.16119748  0.24241549  0.84762741     0.17600
F482        F  0.10675515  0.20484683  0.91085414    -0.20100
C483        C  0.93147456  0.11554821  0.49242026    -0.21600
C484        C  0.90538924  0.08660249  0.00194156    -0.09600
C485        C  0.93716630  0.07482159  0.01419033     0.29200
C486        C  0.99252896  0.09080402  0.01151055    -0.21600
C487        C  0.01832381  0.11922892  0.99801207    -0.09600
C488        C  0.98665510  0.13153618  0.49017507     0.29200
F489        F  0.00909151  0.15933293  0.48090851    -0.20200
H490        H  0.90895865  0.12604633  0.48661891     0.17600
H491        H  0.01450896  0.08079061  0.02235443     0.17600
F492        F  0.91587372  0.04857879  0.03223124    -0.20100
C493        C  0.45414850  0.12636938  0.59445160    -0.21600
C494        C  0.42194612  0.09842840  0.58012410    -0.09600
C495        C  0.43176550  0.07787541  0.59944546     0.29200
C496        C  0.47212239  0.08517730  0.63324339    -0.21600
C497        C  0.50375417  0.11307806  0.64826954    -0.09600
C498        C  0.49467308  0.13372316  0.62793035     0.29200
F499        F  0.52408784  0.16100713  0.64094961    -0.20200
H500        H  0.44817552  0.14269123  0.57942521     0.17600
H501        H  0.47815405  0.06884508  0.64813324     0.17600
F502        F  0.40114729  0.05054301  0.58728253    -0.20100
C503        C  0.46361488  0.09481535  0.93310794    -0.21600
C504        C  0.41520239  0.09270561  0.91964467    -0.09600
C505        C  0.40690802  0.09630357  0.87086869     0.29200
C506        C  0.44723341  0.10330419  0.83714821    -0.21600
C507        C  0.49559717  0.10581335  0.85098352    -0.09600
C508        C  0.50329526  0.10097064  0.89896650     0.29200
F509        F  0.55009356  0.10358929  0.91319189    -0.20200
H510        H  0.47164176  0.09262478  0.97036436     0.17600
H511        H  0.44058644  0.10656027  0.79995814     0.17600
F512        F  0.35972578  0.09264004  0.85544053    -0.20100
C513        C  0.22869154  0.09652409  0.53182745    -0.21600
C514        C  0.27481383  0.10853944  0.50307380    -0.09600
C515        C  0.28809595  0.13380579  0.97886305     0.29200
C516        C  0.25292835  0.14423172  0.97866779    -0.21600
C517        C  0.20455623  0.13049777  0.00359559    -0.09600
C518        C  0.19379445  0.10701074  0.53174520     0.29200
F519        F  0.15006128  0.09441812  0.56017124    -0.20200
H520        H  0.21910072  0.07866327  0.55448357     0.17600
H521        H  0.26356771  0.16296594  0.95834600     0.17600
F522        F  0.33552398  0.14919253  0.95663953    -0.20100
C523        C  0.19745499  0.34984120  0.91961447    -0.21600
C524        C  0.21399016  0.37846074  0.92009920    -0.09600
C525        C  0.25254409  0.39626872  0.88698586     0.29200
C526        C  0.27380089  0.38542508  0.85357920    -0.21600
C527        C  0.25627644  0.35658573  0.85226258    -0.09600
C528        C  0.21805505  0.33891191  0.88611783     0.29200
F529        F  0.19982712  0.31094715  0.88660629    -0.20200
H530        H  0.16768800  0.33579125  0.94492919     0.17600
H531        H  0.30246028  0.39944463  0.82752135     0.17600
F532        F  0.26722800  0.42372609  0.88487415    -0.20100
C533        C  0.19795660  0.37737901  0.62657317    -0.21600
C534        C  0.21776356  0.38266659  0.57921828    -0.09600
C535        C  0.26221824  0.37982109  0.56837622     0.29200
C536        C  0.28432225  0.37061229  0.60369631    -0.21600
C537        C  0.26186636  0.36352448  0.64985115    -0.09600
C538        C  0.21925215  0.36763251  0.66134188     0.29200
F539        F  0.19780420  0.36196095  0.70621377    -0.20200
H540        H  0.16493964  0.38017064  0.63658155     0.17600
H541        H  0.31714377  0.36752580  0.59420562     0.17600
F542        F  0.28221434  0.38396485  0.52309196    -0.20100
C543        C  0.30308241  0.50501703  0.97973459    -0.21600
C544        C  0.28344592  0.01897599  0.50808528    -0.09600
C545        C  0.23858811  0.50304780  0.53709599     0.29200
C546        C  0.21179088  0.47391916  0.53486191    -0.21600
C547        C  0.22893256  0.45980802  0.50394272    -0.09600
C548        C  0.27640793  0.47565359  0.97795298     0.29200
F549        F  0.29555371  0.46302303  0.94890650    -0.20200
H550        H  0.33771835  0.01678988  0.95742211     0.17600
H551        H  0.17688037  0.46231166  0.55708069     0.17600
F552        F  0.22087347  0.01567660  0.56797497    -0.20100
C553        C  0.70568243  0.20645532  0.90346897    -0.21600
C554        C  0.72187916  0.21161113  0.85522992    -0.09600
C555        C  0.76382726  0.23799687  0.84204632     0.29200
C556        C  0.78863540  0.25905322  0.87650525    -0.21600
C557        C  0.77301451  0.25406159  0.92506538    -0.09600
C558        C  0.73151346  0.22730121  0.93836376     0.29200
F559        F  0.71746117  0.22072088  0.98516889    -0.20200
H560        H  0.67413770  0.18598590  0.91432167     0.17600
H561        H  0.82004738  0.27938792  0.86502381     0.17600
F562        F  0.78008527  0.24358325  0.79551350    -0.20100
C563        C  0.80378983  0.24034089  0.59971739    -0.21600
C564        C  0.77929744  0.25562322  0.58561885    -0.09600
C565        C  0.73002893  0.24881919  0.60574121     0.29200
C566        C  0.70584673  0.22710903  0.63920770    -0.21600
C567        C  0.73011078  0.21166669  0.65315552    -0.09600
C568        C  0.77954633  0.21854631  0.63306473     0.29200
F569        F  0.80502879  0.20464491  0.64619399    -0.20200
H570        H  0.84153802  0.24501835  0.58433851     0.17600
H571        H  0.66796549  0.22240937  0.65431190     0.17600
F572        F  0.70587266  0.26363254  0.59420180    -0.20100
C573        C  0.96272794  0.36309155  0.50735709    -0.21600
C574        C  0.93739111  0.33384248  0.50133826    -0.09600
C575        C  0.96981850  0.32174990  0.99708248     0.29200
C576        C  0.02505097  0.33841040  0.99614556    -0.21600
C577        C  0.05049346  0.36774850  0.49963775    -0.09600
C578        C  0.01796212  0.37977702  0.50677803     0.29200
F579        F  0.03788941  0.40731233  0.51589853    -0.20200
H580        H  0.94079960  0.37364562  0.51436558     0.17600
H581        H  0.04835848  0.32814578  0.99291985     0.17600
F582        F  0.94811326  0.29355148  0.99423584    -0.20100
C583        C  0.72858080  0.35778406  0.52779075    -0.21600
C584        C  0.68340260  0.34544325  0.49814939    -0.09600
C585        C  0.66995720  0.31951566  0.97609502     0.29200
C586        C  0.70419327  0.30853122  0.97910500    -0.21600
C587        C  0.75157576  0.32244353  0.50536650    -0.09600
C588        C  0.76238423  0.34671446  0.53108462     0.29200
F589        F  0.80516461  0.35953949  0.56039716    -0.20200
H590        H  0.73804612  0.37624639  0.54875495     0.17600
H591        H  0.69393595  0.28929924  0.96022927     0.17600
F592        F  0.62319585  0.30403766  0.95310280    -0.20100
C593        C  0.87683250  0.81507361  0.00252510     0.86200
C594        C  0.85804013  0.79593715  0.04693326    -0.54000
C595        C  0.80464704  0.77790365  0.04871377     0.09100
C596        C  0.77442569  0.78089088  0.00593209     0.20100
C597        C  0.85476777  0.79488985  0.45950686    -0.54700
C598        C  0.80130409  0.77660774  0.46141745     0.09200
C599        C  0.84349242  0.82973470  0.00289353    -0.54300
C600        C  0.78991913  0.81196167  0.50514498     0.09800
H601        H  0.88503871  0.79622529  0.07408376     0.14300
H602        H  0.73104184  0.76651905  0.00730778     0.00100
H603        H  0.87988494  0.79447906  0.43095470     0.14600
H604        H  0.85945742  0.85200052  0.99907480     0.14400
C605        C  0.11151327  0.88415573  0.99827614     0.86200
C606        C  0.13391542  0.87675820  0.45419269    -0.54000
C607        C  0.18772725  0.88863007  0.45364355     0.09100
C608        C  0.21522170  0.90782355  0.99713737     0.23500
C609        C  0.13490456  0.87678869  0.04155291    -0.54700
C610        C  0.18896116  0.88888324  0.04126687     0.09200
C611        C  0.14090917  0.91638580  0.99774843    -0.54300
C612        C  0.19496525  0.92887129  0.99826328     0.09800
H613        H  0.10893524  0.86182102  0.42704966     0.14300
H614        H  0.25898223  0.91792332  0.99662753     0.00100
H615        H  0.11006119  0.86224166  0.06925945     0.14600
H616        H  0.12234542  0.92906062  0.99617110     0.14400
C617        C  0.30956602  0.59477003  0.00146995     0.86200
C618        C  0.34844707  0.60365688  0.04380245    -0.54000
C619        C  0.37898445  0.59117118  0.04449973     0.09100
C620        C  0.36729939  0.57055591  0.00276687     0.20100
C621        C  0.34436021  0.60036369  0.45629732    -0.54700
C622        C  0.37503196  0.58796000  0.45714297     0.09200
C623        C  0.27758492  0.56259352  0.00398876    -0.54300
C624        C  0.30750837  0.54988037  0.00548844     0.09800
H625        H  0.35179271  0.61879924  0.07060804     0.14300
H626        H  0.39153148  0.56019366  0.00311425     0.00100
H627        H  0.34532730  0.61312458  0.42640968     0.14600
H628        H  0.23464046  0.55070011  0.00302569     0.14400
C629        C  0.07883017  0.63756765  0.49673837     0.86200
C630        C  0.09856819  0.65858287  0.03847975    -0.54000
C631        C  0.15186644  0.67645958  0.03852288     0.09100
C632        C  0.18124986  0.67177558  0.49674421     0.20100
C633        C  0.09998900  0.65565170  0.45109761    -0.54700
C634        C  0.15335131  0.67415293  0.45142535     0.09200
C635        C  0.11202612  0.62286750  0.49975240    -0.54300
C636        C  0.16568501  0.64065827  0.50033455     0.09800
H637        H  0.07234177  0.65945020  0.06545151     0.14300
H638        H  0.22451842  0.68665491  0.49727928     0.00100
H639        H  0.07447390  0.65437019  0.42166779     0.14600
H640        H  0.09540472  0.60042099  0.49915956     0.14400
C641        C  0.84450065  0.57011470  0.50217227     0.86200
C642        C  0.82039835  0.57870817  0.46104114    -0.54000
C643        C  0.76653437  0.56618120  0.46222458     0.09100
C644        C  0.74076667  0.54517234  0.00356388     0.20100
C645        C  0.82146036  0.57538218  0.04802591    -0.54700
C646        C  0.76729824  0.56255073  0.04914266     0.09200
C647        C  0.81670437  0.53806512  0.49739793    -0.54300
C648        C  0.76250428  0.52487380  0.99800997     0.09800
H649        H  0.84391303  0.59414296  0.43389162     0.14300
H650        H  0.69687778  0.53475048  0.00382072     0.00100
H651        H  0.84653593  0.58977381  0.07569895     0.14600
H652        H  0.83733500  0.52652166  0.49235983     0.14400
C653        C  0.64847622  0.85902877  0.99517878     0.86200
C654        C  0.61070154  0.85105321  0.03837859    -0.54000
C655        C  0.57990029  0.86324063  0.03830711     0.09100
C656        C  0.58932416  0.88248987  0.99507882     0.20100
C657        C  0.61257629  0.85200725  0.45061862    -0.54700
C658        C  0.58047160  0.86359555  0.45110747     0.09200
C659        C  0.67976318  0.89126965  0.99483504    -0.54300
C660        C  0.64919924  0.90370105  0.99481184     0.09800
H661        H  0.60760713  0.83641674  0.06605142     0.14300
H662        H  0.56374888  0.89210545  0.99557164     0.00100
H663        H  0.61351035  0.83988105  0.42036299     0.14600
H664        H  0.72270948  0.90335549  0.99371157     0.14400
O665        O  0.39568747  0.85208017  0.30259096    -0.82100
C666        C  0.25257168  0.76446409  0.17986617     0.97300
O667        O  0.28932793  0.76502356  0.20468072    -0.71200
O668        O  0.38171749  0.80881210  0.18679480    -0.74800
Al669      Al  0.34340526  0.79287821  0.24428268     1.49000
C670        C  0.41434953  0.83432612  0.17960442     0.92500
O671        O  0.32841926  0.85808623  0.18975619    -0.81000
O672        O  0.24863776  0.81885345  0.30547849    -0.74600
Al673      Al  0.35926747  0.85275462  0.24632959     1.90100
O674        O  0.24568525  0.83033513  0.21042779    -0.73600
O675        O  0.23074759  0.76879627  0.28419616    -0.73500
O676        O  0.23690077  0.78168458  0.18802798    -0.79100
O677        O  0.30822446  0.77399006  0.30180144    -0.77300
O678        O  0.31654071  0.81565139  0.24584158    -1.13500
O679        O  0.40328358  0.81570173  0.28338174    -0.72700
C680        C  0.41674900  0.83714365  0.30894160     0.98100
C681        C  0.27988462  0.85002615  0.18496081     0.94400
Al682      Al  0.24655956  0.80120014  0.24688375     1.55600
O683        O  0.41254076  0.85292809  0.20489007    -0.77300
C684        C  0.25898168  0.76216556  0.30907892     0.98600
C685        C  0.27473080  0.84473891  0.31379272     0.93500
O686        O  0.31491896  0.86052706  0.28837021    -0.82600
O687        O  0.56046537  0.60029467  0.30899465    -0.82100
C688        C  0.70434807  0.68937481  0.18981752     0.97300
O689        O  0.66843680  0.68893106  0.21617645    -0.71200
O690        O  0.57631061  0.64557375  0.19559584    -0.74800
Al691      Al  0.61292762  0.65995755  0.25393060     1.49000
C692        C  0.54409978  0.62023585  0.18642502     0.92500
O693        O  0.62829801  0.59532368  0.19558775    -0.81000
O694        O  0.70665658  0.63369695  0.31200904    -0.74600
Al695      Al  0.59701281  0.60019938  0.25241582     1.90100
O696        O  0.71077798  0.62263973  0.21681775    -0.73600
O697        O  0.72526587  0.68412244  0.29169368    -0.73500
O698        O  0.71880236  0.67145012  0.19555879    -0.79100
O699        O  0.64692211  0.67679038  0.31324641    -0.77300
O700        O  0.63962025  0.63716705  0.25319526    -1.13500
O701        O  0.55112168  0.63620662  0.29073809    -0.72700
C702        C  0.53816418  0.61456540  0.31534770     0.98100
C703        C  0.67676044  0.60325458  0.19081094     0.94400
Al704      Al  0.70948234  0.65166060  0.25389627     1.55600
O705        O  0.54493170  0.60096106  0.21056355    -0.77300
C706        C  0.69649235  0.68946601  0.31869525     0.98600
C707        C  0.67959248  0.60788926  0.32086317     0.93500
O708        O  0.64045424  0.59202404  0.29455140    -0.82600
C709        C  0.54203782  0.87572532  0.10828521    -0.21600
C710        C  0.53726468  0.85606482  0.07385627    -0.09600
C711        C  0.49165600  0.82951158  0.07343771     0.29200
C712        C  0.45147159  0.82272296  0.10739569    -0.21600
C713        C  0.45606690  0.84233675  0.14229419    -0.09600
C714        C  0.50193260  0.86903011  0.14229827     0.29200
F715        F  0.50901006  0.88838756  0.17607213    -0.20200
H716        H  0.57745278  0.89606912  0.10957034     0.17600
H717        H  0.41674275  0.80205174  0.10642015     0.17600
F718        F  0.48593374  0.81023915  0.03997234    -0.20100
C719        C  0.52596610  0.87749219  0.40042421    -0.21600
C720        C  0.53885902  0.85710349  0.41431054    -0.09600
C721        C  0.51016054  0.83012301  0.39422205     0.29200
C722        C  0.47070536  0.82404553  0.36034487    -0.21600
C723        C  0.45799274  0.84440430  0.34608250    -0.09600
C724        C  0.48579524  0.87125262  0.36678015     0.29200
F725        F  0.47506579  0.89163285  0.35388953    -0.20200
H726        H  0.54745155  0.89844224  0.41512000     0.17600
H727        H  0.44948381  0.80306637  0.34566086     0.17600
F728        F  0.51862290  0.80915025  0.40846066    -0.20100
C729        C  0.67616182  0.56737075  0.36559913    -0.21600
C730        C  0.69587431  0.59636356  0.36126726    -0.09600
C731        C  0.73424769  0.61457747  0.39434405     0.29200
C732        C  0.75522573  0.60422454  0.42812871    -0.21600
C733        C  0.73804440  0.57558675  0.43038239    -0.09600
C734        C  0.69695363  0.55698863  0.40018393     0.29200
F735        F  0.67928941  0.52911466  0.40217859    -0.20200
H736        H  0.64624346  0.55286176  0.34103335     0.17600
H737        H  0.78603292  0.61875028  0.45205820     0.17600
F738        F  0.75265592  0.64256194  0.39351291    -0.20100
C739        C  0.69612200  0.57304135  0.07474656    -0.21600
C740        C  0.73860832  0.56894793  0.08711828    -0.09600
C741        C  0.75652923  0.57365674  0.13506303     0.29200
C742        C  0.73528853  0.58427086  0.16859433    -0.21600
C743        C  0.69469875  0.58961615  0.15564182    -0.09600
C744        C  0.67393459  0.58304970  0.10882397     0.29200
F745        F  0.63460588  0.58796553  0.09521557    -0.20200
H746        H  0.68168972  0.56981993  0.03812172     0.17600
H747        H  0.75090703  0.58854388  0.20487294     0.17600
F748        F  0.79495235  0.56824139  0.14956050    -0.20100
C749        C  0.68322492  0.97882026  0.02100863    -0.21600
C750        C  0.72886559  0.49394282  0.99262151    -0.09600
C751        C  0.74385875  0.97911269  0.46098406     0.29200
C752        C  0.71654984  0.94991008  0.46093820    -0.21600
C753        C  0.67306334  0.93467865  0.99162920    -0.09600
C754        C  0.65527459  0.94941690  0.02037707     0.29200
F755        F  0.61282439  0.93558092  0.04982726    -0.20200
H756        H  0.67050529  0.98970641  0.04530045     0.17600
H757        H  0.72986080  0.93912612  0.43701854     0.17600
F758        F  0.78500363  0.49279012  0.42995498    -0.20100
C759        C  0.24839070  0.72529932  0.13133532    -0.21600
C760        C  0.22733851  0.74278085  0.14210482    -0.09600
C761        C  0.18144952  0.73841173  0.11783998     0.29200
C762        C  0.15705003  0.71675205  0.08428523    -0.21600
C763        C  0.17813206  0.69931268  0.07396895    -0.09600
C764        C  0.22419220  0.70383960  0.09754485     0.29200
F765        F  0.24471834  0.68687567  0.08926390    -0.20200
H766        H  0.28349970  0.72801669  0.14946489     0.17600
H767        H  0.12174764  0.71368573  0.06602702     0.17600
F768        F  0.15960977  0.75469323  0.12686873    -0.20100
C769        C  0.23240557  0.70492838  0.39988519    -0.21600
C770        C  0.18043786  0.69659634  0.41463434    -0.09600
C771        C  0.15551646  0.71073217  0.39552065     0.29200
C772        C  0.18151632  0.73198870  0.36156592    -0.21600
C773        C  0.23320384  0.74005281  0.34624982    -0.09600
C774        C  0.25865514  0.72639485  0.36608583     0.29200
F775        F  0.30841257  0.73328952  0.35218919    -0.20200
H776        H  0.25266889  0.69459796  0.41397407     0.17600
H777        H  0.16118816  0.74241069  0.34761728     0.17600
F778        F  0.10674650  0.70484592  0.41084974    -0.20100
C779        C  0.93146723  0.61554163  0.99240479    -0.21600
C780        C  0.90538142  0.58660447  0.50195162    -0.09600
C781        C  0.93715815  0.57482506  0.51421052     0.29200
C782        C  0.99252058  0.59080722  0.51153023    -0.21600
C783        C  0.01831515  0.61923072  0.49802311    -0.09600
C784        C  0.98664822  0.63153087  0.99016013     0.29200
F785        F  0.00908323  0.65932902  0.98090747    -0.20200
H786        H  0.90894956  0.62603981  0.98661362     0.17600
H787        H  0.01450117  0.58079521  0.52238112     0.17600
F788        F  0.91586498  0.54858453  0.53226201    -0.20100
C789        C  0.45413692  0.62636433  0.09444771    -0.21600
C790        C  0.42193679  0.59842319  0.08011988    -0.09600
C791        C  0.43175782  0.57787098  0.09944205     0.29200
C792        C  0.47211557  0.58517401  0.13323963    -0.21600
C793        C  0.50374617  0.61307513  0.14826492    -0.09600
C794        C  0.49466170  0.63371919  0.12792657     0.29200
F795        F  0.52407379  0.66100322  0.14094624    -0.20200
H796        H  0.44816230  0.64268560  0.07942118     0.17600
H797        H  0.47814908  0.56884241  0.14812958     0.17600
F798        F  0.40114076  0.55053836  0.08727984    -0.20100
C799        C  0.46361121  0.59482227  0.43309521    -0.21600
C800        C  0.41519542  0.59270764  0.41962910    -0.09600
C801        C  0.40689774  0.59629975  0.37085134     0.29200
C802        C  0.44722284  0.60329826  0.33713119    -0.21600
C803        C  0.49558877  0.60581103  0.35096984    -0.09600
C804        C  0.50329042  0.60097499  0.39895494     0.29200
F805        F  0.55009146  0.60359826  0.41318320    -0.20200
H806        H  0.47164219  0.59263754  0.47035314     0.17600
H807        H  0.44057458  0.60655032  0.29993942     0.17600
F808        F  0.35971347  0.59263268  0.35542146    -0.20100
C809        C  0.22867749  0.59651568  0.03180369    -0.21600
C810        C  0.27480883  0.60853473  0.00306230    -0.09600
C811        C  0.28807847  0.63379865  0.47885223     0.29200
C812        C  0.25291237  0.64422555  0.47866020    -0.21600
C813        C  0.20454111  0.63049197  0.50358921    -0.09600
C814        C  0.19378206  0.60700320  0.03171732     0.29200
F815        F  0.15004099  0.59440702  0.06013309    -0.20200
H816        H  0.21907869  0.57865195  0.05445440     0.17600
H817        H  0.26355285  0.66296062  0.45834089     0.17600
F818        F  0.33550604  0.64918521  0.45662771    -0.20100
C819        C  0.19740922  0.84983260  0.41957813    -0.21600
C820        C  0.21398429  0.87845701  0.42009131    -0.09600
C821        C  0.25257818  0.89626711  0.38700840     0.29200
C822        C  0.27383166  0.88542148  0.35360229    -0.21600
C823        C  0.25626658  0.85657812  0.35225551    -0.09600
C824        C  0.21800710  0.83890160  0.38608225     0.29200
F825        F  0.19973824  0.81093265  0.38654293    -0.20200
H826        H  0.16761407  0.83578052  0.44487028     0.17600
H827        H  0.30252289  0.89944422  0.32756843     0.17600
F828        F  0.26730644  0.92373058  0.38492270    -0.20100
C829        C  0.19798634  0.87739770  0.12658018    -0.21600
C830        C  0.21778515  0.88267990  0.07922254    -0.09600
C831        C  0.26223136  0.87982851  0.06837448     0.29200
C832        C  0.28432970  0.87061412  0.10369063    -0.21600
C833        C  0.26187646  0.86352808  0.14984699    -0.09600
C834        C  0.21927664  0.86764654  0.16134532     0.29200
F835        F  0.19783618  0.86197935  0.20622016    -0.20200
H836        H  0.16497556  0.88019423  0.13659121     0.17600
H837        H  0.31714275  0.86752138  0.09419571     0.17600
F838        F  0.28222069  0.88397030  0.02308768    -0.20100
C839        C  0.30308669  0.00502542  0.47972637    -0.21600
C840        C  0.28343602  0.51897010  0.00808022    -0.09600
C841        C  0.23851567  0.00304123  0.03704327     0.29200
C842        C  0.21170530  0.97391260  0.03479519    -0.21600
C843        C  0.22886989  0.95980048  0.00390399    -0.09600
C844        C  0.27641649  0.97566227  0.47794272     0.29200
F845        F  0.29555513  0.96303461  0.44888218    -0.20200
H846        H  0.33772672  0.51679863  0.45739733     0.17600
H847        H  0.17677510  0.96230583  0.05699097     0.17600
F848        F  0.22084775  0.51567422  0.06795043    -0.20100
C849        C  0.70568868  0.70645338  0.40346666    -0.21600
C850        C  0.72187770  0.71161143  0.35522572    -0.09600
C851        C  0.76382550  0.73799769  0.34204285     0.29200
C852        C  0.78864005  0.75905219  0.37650425    -0.21600
C853        C  0.77302475  0.75405856  0.42506541    -0.09600
C854        C  0.73152520  0.72729767  0.43836323     0.29200
F855        F  0.71747908  0.72071585  0.48516917    -0.20200
H856        H  0.67414546  0.68598343  0.41431916     0.17600
H857        H  0.82005142  0.77938747  0.36502388     0.17600
F858        F  0.78007682  0.74358640  0.29550857    -0.20100
C859        C  0.80377397  0.74033029  0.09970132    -0.21600
C860        C  0.77928389  0.75561341  0.08560016    -0.09600
C861        C  0.73001773  0.74881268  0.10572428     0.29200
C862        C  0.70583574  0.72710470  0.13919471    -0.21600
C863        C  0.73009931  0.71166268  0.15314578    -0.09600
C864        C  0.77953265  0.71853949  0.13305435     0.29200
F865        F  0.80501639  0.70463971  0.14618964    -0.20200
H866        H  0.84152050  0.74500503  0.08432241     0.17600
H867        H  0.66795641  0.72240712  0.15430044     0.17600
F868        F  0.70586524  0.76362801  0.09418558    -0.20100
C869        C  0.96274348  0.86305525  0.00765726    -0.21600
C870        C  0.93739575  0.83382482  0.00136157    -0.09600
C871        C  0.96982501  0.82175532  0.49714841     0.29200
C872        C  0.02505869  0.83841718  0.49621259    -0.21600
C873        C  0.05049058  0.86771904  0.99967787    -0.09600
C874        C  0.01798158  0.87973445  0.00710754     0.29200
F875        F  0.03795392  0.90723265  0.01662577    -0.20200
H876        H  0.94080769  0.87358274  0.01491017     0.17600
H877        H  0.04836961  0.82815169  0.49304633     0.17600
F878        F  0.94812236  0.79355482  0.49437080    -0.20100
C879        C  0.72862232  0.85780780  0.02777297    -0.21600
C880        C  0.68343059  0.84545844  0.99814778    -0.09600
C881        C  0.66996520  0.81951791  0.47604841     0.29200
C882        C  0.70420070  0.80853323  0.47906250    -0.21600
C883        C  0.75161358  0.82246386  0.00536321    -0.09600
C884        C  0.76243116  0.84674107  0.03106491     0.29200
F885        F  0.80522228  0.85957338  0.06036344    -0.20200
H886        H  0.73809291  0.87627379  0.04872855     0.17600
H887        H  0.69395934  0.78930863  0.46016809     0.17600
F888        F  0.62322142  0.80404738  0.45302572    -0.20100
C889        C  0.87680010  0.81511026  0.50249597     0.86200
C890        C  0.85805039  0.79602687  0.54698948    -0.54000
C891        C  0.80466708  0.77794689  0.54877126     0.09100
C892        C  0.77440839  0.78085561  0.50594275     0.20100
C893        C  0.85474047  0.79491742  0.95944347    -0.54700
C894        C  0.80127198  0.77665330  0.96136012     0.09200
C895        C  0.84334585  0.82971393  0.50279526    -0.54300
C896        C  0.79004207  0.81201893  0.00521883     0.09800
H897        H  0.88506250  0.79636970  0.57417810     0.14300
H898        H  0.73103239  0.76646034  0.50732819     0.00100
H899        H  0.87981219  0.79452382  0.93083099     0.14600
H900        H  0.85914445  0.85195686  0.49905787     0.14400
C901        C  0.11156307  0.88426183  0.49820804     0.86200
C902        C  0.13388612  0.87666573  0.95425110    -0.54000
C903        C  0.18770536  0.88858175  0.95367858     0.09100
C904        C  0.21526998  0.90781480  0.49715084     0.23500
C905        C  0.13486095  0.87682246  0.54149440    -0.54700
C906        C  0.18891328  0.88884815  0.54123349     0.09200
C907        C  0.14112665  0.91650146  0.49785672    -0.54300
C908        C  0.19516198  0.92891729  0.49836056     0.09800
H909        H  0.10893638  0.86171922  0.92710699     0.14300
H910        H  0.25902507  0.91787397  0.49665414     0.00100
H911        H  0.10996314  0.86228394  0.56918577     0.14600
H912        H  0.12277958  0.92927542  0.49666228     0.14400
C913        C  0.30955590  0.59478136  0.50146009     0.86200
C914        C  0.34841726  0.60364533  0.54380508    -0.54000
C915        C  0.37893208  0.59114628  0.54450041     0.09100
C916        C  0.36723202  0.57053370  0.50275594     0.20100
C917        C  0.34435518  0.60035207  0.95629646    -0.54700
C918        C  0.37505769  0.58796668  0.95714658     0.09200
C919        C  0.27754048  0.56260690  0.50394942    -0.54300
C920        C  0.30742513  0.54987276  0.50545395     0.09800
H921        H  0.35177774  0.61878945  0.57061377     0.14300
H922        H  0.39144213  0.56015899  0.50310484     0.00100
H923        H  0.34529128  0.61310126  0.92640116     0.14600
H924        H  0.23459611  0.55073084  0.50295203     0.14400
C925        C  0.07884810  0.63756071  0.99676215     0.86200
C926        C  0.09855958  0.65859079  0.53845355    -0.54000
C927        C  0.15185807  0.67646307  0.53849027     0.09100
C928        C  0.18126696  0.67177272  0.99678083     0.20100
C929        C  0.10001082  0.65564612  0.95112461    -0.54700
C930        C  0.15337248  0.67414748  0.95145718     0.09200
C931        C  0.11204886  0.62286377  0.99978188    -0.54300
C932        C  0.16570654  0.64065564  0.00037241     0.09800
H933        H  0.07234077  0.65946151  0.56542998     0.14300
H934        H  0.22453455  0.68665370  0.99731427     0.00100
H935        H  0.07449877  0.65436471  0.92169187     0.14600
H936        H  0.09543361  0.60041813  0.99918163     0.14400
C937        C  0.84451442  0.57010044  0.00215464     0.86200
C938        C  0.82041692  0.57869504  0.96102051    -0.54000
C939        C  0.76655296  0.56617318  0.96220545     0.09100
C940        C  0.74075237  0.54517487  0.50357486     0.20100
C941        C  0.82143858  0.57538772  0.54804503    -0.54700
C942        C  0.76727520  0.56254845  0.54915976     0.09200
C943        C  0.81670403  0.53804965  0.99738880    -0.54300
C944        C  0.76250294  0.52488269  0.49801241     0.09800
H945        H  0.84393643  0.59412861  0.93387097     0.14300
H946        H  0.69686320  0.53474897  0.50382758     0.00100
H947        H  0.84650912  0.58977871  0.57572088     0.14600
H948        H  0.83731792  0.52649823  0.99234449     0.14400
C949        C  0.64841052  0.85899622  0.49517035     0.86200
C950        C  0.61064763  0.85103250  0.53837487    -0.54000
C951        C  0.57987830  0.86323737  0.53831382     0.09100
C952        C  0.58931735  0.88249081  0.49509008     0.20100
C953        C  0.61264071  0.85202507  0.95062069    -0.54700
C954        C  0.58050838  0.86359768  0.95109841     0.09200
C955        C  0.67973634  0.89123820  0.49483051    -0.54300
C956        C  0.64920065  0.90368703  0.49481991     0.09800
H957        H  0.60753244  0.83638819  0.56604132     0.14300
H958        H  0.56376331  0.89211898  0.49559057     0.00100
H959        H  0.61359362  0.83989980  0.92037114     0.14600
H960        H  0.72268417  0.90331011  0.49371043     0.14400
O961        O  0.39569392  0.85205952  0.80258837    -0.82100
C962        C  0.25258380  0.76444524  0.67985719     0.97300
O963        O  0.28933777  0.76500201  0.70467233    -0.71200
O964        O  0.38171930  0.80879758  0.68679707    -0.74800
Al965      Al  0.34341142  0.79285699  0.74428040     1.49000
C966        C  0.41433447  0.83431347  0.67960389     0.92500
O967        O  0.32836652  0.85805859  0.68977530    -0.81000
O968        O  0.24862008  0.81880673  0.80549521    -0.74600
Al969      Al  0.35924338  0.85272857  0.74633970     1.90100
O970        O  0.24564287  0.83029600  0.71045675    -0.73600
O971        O  0.23075302  0.76875816  0.78418660    -0.73500
O972        O  0.23690718  0.78166224  0.68802830    -0.79100
O973        O  0.30823670  0.77396340  0.80179765    -0.77300
O974        O  0.31653324  0.81562454  0.74584803    -1.13500
O975        O  0.40328962  0.81568123  0.78337971    -0.72700
C976        C  0.41676247  0.83712548  0.80893450     0.98100
C977        C  0.27982567  0.84998753  0.68498199     0.94400
Al978      Al  0.24654930  0.80116431  0.74689296     1.55600
O979        O  0.41251066  0.85291270  0.70488392    -0.77300
C980        C  0.25899341  0.76213418  0.80907350     0.98600
C981        C  0.27470890  0.84469087  0.81382229     0.93500
O982        O  0.31489449  0.86048548  0.78840224    -0.82600
O983        O  0.56047085  0.60029728  0.80900007    -0.82100
C984        C  0.70435381  0.68938647  0.68982573     0.97300
O985        O  0.66841896  0.68892915  0.71616765    -0.71200
O986        O  0.57629397  0.64556275  0.69558023    -0.74800
Al987      Al  0.61291088  0.65995377  0.75391856     1.49000
C988        C  0.54407825  0.62022338  0.68641951     0.92500
O989        O  0.62828390  0.59532121  0.69559662    -0.81000
O990        O  0.70664988  0.63369656  0.81201272    -0.74600
Al991      Al  0.59700610  0.60019810  0.75242081     1.90100
O992        O  0.71076822  0.62264327  0.71681509    -0.73600
O993        O  0.72524977  0.68412355  0.79170530    -0.73500
O994        O  0.71881112  0.67146254  0.69556439    -0.79100
O995        O  0.64690059  0.67679363  0.81323451    -0.77300
O996        O  0.63961198  0.63716725  0.75319326    -1.13500
O997        O  0.55110759  0.63620124  0.79072560    -0.72700
C998        C  0.53816251  0.61456469  0.81534443     0.98100
C999        C  0.67674567  0.60325251  0.69081853     0.94400
Al1000     Al  0.70947569  0.65166391  0.75390023     1.55600
O1001       O  0.54491165  0.60095254  0.71056992    -0.77300
C1002       C  0.69647030  0.68947179  0.81869083     0.98600
C1003       C  0.67959334  0.60788793  0.82086198     0.93500
O1004       O  0.64045348  0.59202361  0.79455174    -0.82600
C1005       C  0.54203983  0.87571369  0.60831855    -0.21600
C1006       C  0.53724344  0.85606366  0.57385790    -0.09600
C1007       C  0.49161793  0.82951789  0.57341015     0.29200
C1008       C  0.45143510  0.82272615  0.60736851    -0.21600
C1009       C  0.45605060  0.84232954  0.64229586    -0.09600
C1010       C  0.50193563  0.86901492  0.64233330     0.29200
F1011       F  0.50903386  0.88835812  0.67614388    -0.20200
H1012       H  0.57747104  0.89605016  0.60962741     0.17600
H1013       H  0.41669166  0.80206072  0.60637112     0.17600
F1014       F  0.48588073  0.81025517  0.53991841    -0.20100
C1015       C  0.52599914  0.87748543  0.90039967    -0.21600
C1016       C  0.53890365  0.85710114  0.91428796    -0.09600
C1017       C  0.51021835  0.83012142  0.89419473     0.29200
C1018       C  0.47075446  0.82403847  0.86032112    -0.21600
C1019       C  0.45802289  0.84439176  0.84606474    -0.09600
C1020       C  0.48582305  0.87124113  0.86675840     0.29200
F1021       F  0.47508427  0.89161805  0.85386838    -0.20200
H1022       H  0.54747752  0.89843576  0.91509472     0.17600
H1023       H  0.44953996  0.80305935  0.84563685     0.17600
F1024       F  0.51869993  0.80915437  0.90842803    -0.20100
C1025       C  0.67618491  0.56736748  0.86557665    -0.21600
C1026       C  0.69588549  0.59636003  0.86125751    -0.09600
C1027       C  0.73425665  0.61457176  0.89433820     0.29200
C1028       C  0.75524090  0.60421777  0.92811614    -0.21600
C1029       C  0.73806698  0.57558059  0.93036050    -0.09600
C1030       C  0.69698234  0.55698423  0.90015491     0.29200
F1031       F  0.67932792  0.52911098  0.90213805    -0.20200
H1032       H  0.64627032  0.55285983  0.84100707     0.17600
H1033       H  0.78604452  0.61874213  0.95204994     0.17600
F1034       F  0.75265448  0.64255524  0.89351896    -0.20100
C1035       C  0.69606683  0.57301026  0.57477644    -0.21600
C1036       C  0.73857513  0.56893393  0.58714032    -0.09600
C1037       C  0.75651045  0.57365243  0.63508058     0.29200
C1038       C  0.73527609  0.58427075  0.66860890    -0.21600
C1039       C  0.69467436  0.58960658  0.65565894    -0.09600
C1040       C  0.67388073  0.58301873  0.60885341     0.29200
F1041       F  0.63452400  0.58791432  0.59525455    -0.20200
H1042       H  0.68161712  0.56977740  0.53815699     0.17600
H1043       H  0.75090962  0.58855513  0.70488199     0.17600
F1044       F  0.79494429  0.56824481  0.64957526    -0.20100
C1045       C  0.68326018  0.97881140  0.52104396    -0.21600
C1046       C  0.72887115  0.49395187  0.49261183    -0.09600
C1047       C  0.74384304  0.97912282  0.96096842     0.29200
C1048       C  0.71652931  0.94992112  0.96091598    -0.21600
C1049       C  0.67309063  0.93466787  0.49165842    -0.09600
C1050       C  0.65531557  0.94940768  0.52042009     0.29200
F1051       F  0.61288255  0.93557255  0.54988948    -0.20200
H1052       H  0.67054809  0.98969832  0.54534215     0.17600
H1053       H  0.72984724  0.93913794  0.93700180     0.17600
F1054       F  0.78492330  0.49277903  0.92989425    -0.20100
C1055       C  0.24835036  0.72525642  0.63136011    -0.21600
C1056       C  0.22735323  0.74276816  0.64208676    -0.09600
C1057       C  0.18151727  0.73843635  0.61776776     0.29200
C1058       C  0.15710922  0.71678089  0.58420825    -0.21600
C1059       C  0.17813410  0.69931127  0.57393790    -0.09600
C1060       C  0.22414541  0.70380212  0.59756102     0.29200
F1061       F  0.24461366  0.68680844  0.58931565    -0.20200
H1062       H  0.28341785  0.72794521  0.64953033     0.17600
H1063       H  0.12184576  0.71374114  0.56590991     0.17600
F1064       F  0.15973963  0.75475249  0.62674336    -0.20100
C1065       C  0.23241999  0.70490644  0.89989753    -0.21600
C1066       C  0.18046139  0.69658590  0.91466045    -0.09600
C1067       C  0.15554673  0.71072527  0.89554899     0.29200
C1068       C  0.18154307  0.73197417  0.86158229    -0.21600
C1069       C  0.23322069  0.74002682  0.84625175    -0.09600
C1070       C  0.25866665  0.72636560  0.86608506     0.29200
F1071       F  0.30841385  0.73324948  0.85217218    -0.20200
H1072       H  0.25267640  0.69457192  0.91398451     0.17600
H1073       H  0.16122061  0.74239986  0.84763635     0.17600
F1074       F  0.10678693  0.70484937  0.91089127    -0.20100
C1075       C  0.93145291  0.61555445  0.49238674    -0.21600
C1076       C  0.90539632  0.58658746  0.00193240    -0.09600
C1077       C  0.93717495  0.57480247  0.01415072     0.29200
C1078       C  0.99253735  0.59078864  0.01148734    -0.21600
C1079       C  0.01833255  0.61922039  0.99803267    -0.09600
C1080       C  0.98663311  0.63154054  0.49012941     0.29200
F1081       F  0.00906907  0.65933525  0.48084453    -0.20200
H1082       H  0.90893815  0.62605236  0.48657683     0.17600
H1083       H  0.01451428  0.58077002  0.02230918     0.17600
F1084       F  0.91588671  0.54855093  0.03215009    -0.20100
C1085       C  0.45411627  0.62634283  0.59442149    -0.21600
C1086       C  0.42189784  0.59839910  0.58011227    -0.09600
C1087       C  0.43171204  0.57784739  0.59944831     0.29200
C1088       C  0.47207229  0.58515278  0.63324837    -0.21600
C1089       C  0.50371819  0.61305687  0.64825760    -0.09600
C1090       C  0.49464551  0.63370027  0.62789819     0.29200
F1091       F  0.52407463  0.66098727  0.64089490    -0.20200
H1092       H  0.44815173  0.64266474  0.57938224     0.17600
H1093       H  0.47809705  0.56882115  0.64815167     0.17600
F1094       F  0.40108642  0.55051382  0.58729599    -0.20100
C1095       C  0.46364864  0.59485172  0.93310208    -0.21600
C1096       C  0.41521771  0.59271741  0.91963250    -0.09600
C1097       C  0.40689692  0.59628592  0.87085111     0.29200
C1098       C  0.44721499  0.60328041  0.83712641    -0.21600
C1099       C  0.49559472  0.60581199  0.85096839    -0.09600
C1100       C  0.50331958  0.60099873  0.89895878     0.29200
F1101       F  0.55013348  0.60363822  0.91318723    -0.20200
H1102       H  0.47169685  0.59268585  0.97036335     0.17600
H1103       H  0.44055156  0.60651495  0.79992981     0.17600
F1104       F  0.35969787  0.59259925  0.85542364    -0.20100
C1105       C  0.22868881  0.59654079  0.53181098    -0.21600
C1106       C  0.27481236  0.60855431  0.50305783    -0.09600
C1107       C  0.28809417  0.63379030  0.97888599     0.29200
C1108       C  0.25293830  0.64422385  0.97870614    -0.21600
C1109       C  0.20456017  0.63048692  0.00362358    -0.09600
C1110       C  0.19377936  0.60701931  0.53170631     0.29200
F1111       F  0.15003936  0.59442466  0.56012370    -0.20200
H1112       H  0.21910152  0.57868363  0.55447567     0.17600
H1113       H  0.26359298  0.66296685  0.95840637     0.17600
F1114       F  0.33552858  0.64917848  0.95667260    -0.20100
C1115       C  0.19729931  0.84976949  0.91954515    -0.21600
C1116       C  0.21398577  0.87840808  0.92014840    -0.09600
C1117       C  0.25268480  0.89622656  0.88714971     0.29200
C1118       C  0.27392641  0.88537763  0.85373869    -0.21600
C1119       C  0.25624492  0.85652284  0.85229732    -0.09600
C1120       C  0.21788013  0.83883547  0.88603998     0.29200
F1121       F  0.19948054  0.81085316  0.88640247    -0.20200
H1122       H  0.16742129  0.83570737  0.94476813     0.17600
H1123       H  0.30270219  0.89941102  0.82777065     0.17600
F1124       F  0.26752128  0.92370466  0.88513276    -0.20100
C1125       C  0.19785000  0.87730312  0.62654455    -0.21600
C1126       C  0.21766891  0.88259461  0.57919320    -0.09600
C1127       C  0.26212361  0.87974619  0.56836199     0.29200
C1128       C  0.28423408  0.87054697  0.60369208    -0.21600
C1129       C  0.26178598  0.86346874  0.64985014    -0.09600
C1130       C  0.21915483  0.86756644  0.66132557     0.29200
F1131       F  0.19770827  0.86190116  0.70619794    -0.20200
H1132       H  0.16483183  0.88009482  0.63654687     0.17600
H1133       H  0.31706073  0.86746344  0.59420844     0.17600
F1134       F  0.28212187  0.88388279  0.52307937    -0.20100
C1135       C  0.30293654  0.00499399  0.97969524    -0.21600
C1136       C  0.28328960  0.51895531  0.50799743    -0.09600
C1137       C  0.23884995  0.00307229  0.53729782     0.29200
C1138       C  0.21209837  0.97394338  0.53511952    -0.21600
C1139       C  0.22916214  0.95983232  0.50411254    -0.09600
C1140       C  0.27622793  0.97563139  0.97786891     0.29200
F1141       F  0.29546463  0.96300913  0.94891454    -0.20200
H1142       H  0.33778252  0.51681376  0.95736678     0.17600
H1143       H  0.17725514  0.96233602  0.55741747     0.17600
F1144       F  0.22056696  0.51564689  0.56773654    -0.20100
C1145       C  0.70567934  0.70647887  0.90345273    -0.21600
C1146       C  0.72184671  0.71162912  0.85520572    -0.09600
C1147       C  0.76375703  0.73802212  0.84199921     0.29200
C1148       C  0.78855555  0.75909021  0.87644295    -0.21600
C1149       C  0.77296477  0.75410378  0.92501091    -0.09600
C1150       C  0.73150283  0.72733657  0.93833162     0.29200
F1151       F  0.71748933  0.72076073  0.98514484    -0.20200
H1152       H  0.67416642  0.68600487  0.91432427     0.17600
H1153       H  0.81994362  0.77942799  0.86494593     0.17600
F1154       F  0.77999135  0.74360226  0.79545973    -0.20100
C1155       C  0.80384321  0.74039690  0.59979374    -0.21600
C1156       C  0.77933968  0.75567211  0.58568813    -0.09600
C1157       C  0.73005488  0.74885386  0.60578946     0.29200
C1158       C  0.70586180  0.72713329  0.63923576    -0.21600
C1159       C  0.73012759  0.71169134  0.65318093    -0.09600
C1160       C  0.77958405  0.71858797  0.63311659     0.29200
F1161       F  0.80506589  0.70468574  0.64624223    -0.20200
H1162       H  0.84160420  0.74508655  0.58442891     0.17600
H1163       H  0.66796659  0.72242251  0.65432080     0.17600
F1164       F  0.70588550  0.76365906  0.59423796    -0.20100
C1165       C  0.96267249  0.86321063  0.50615747    -0.21600
C1166       C  0.93737384  0.83389735  0.50121281    -0.09600
C1167       C  0.96978666  0.82169170  0.99643947     0.29200
C1168       C  0.02500889  0.83833317  0.99551653    -0.21600
C1169       C  0.05050622  0.86784526  0.49945500    -0.09600
C1170       C  0.01789210  0.87991703  0.50546379     0.29200
F1171       F  0.03765064  0.90758315  0.51299009    -0.20200
H1172       H  0.94077540  0.87386088  0.51219738     0.17600
H1173       H  0.04827394  0.82807853  0.99164015     0.17600
F1174       F  0.94804574  0.79351911  0.99283378    -0.20100
C1175       C  0.72846491  0.85771708  0.52781598    -0.21600
C1176       C  0.68331874  0.84540059  0.49813827    -0.09600
C1177       C  0.67008290  0.81956932  0.97609337     0.29200
C1178       C  0.70434031  0.80859929  0.97910561    -0.21600
C1179       C  0.75144854  0.82237766  0.50535586    -0.09600
C1180       C  0.76224297  0.84663396  0.53111653     0.29200
F1181       F  0.80499517  0.85943649  0.56046645    -0.20200
H1182       H  0.73792679  0.87617292  0.54879882     0.17600
H1183       H  0.69408426  0.78936382  0.96024207     0.17600
F1184       F  0.62332233  0.80407871  0.95310645    -0.20100
loop_ 
_geom_bond_atom_site_label_1 
_geom_bond_atom_site_label_2 
_geom_bond_distance 
_geom_bond_site_symmetry_2 
_ccdc_geom_bond_type 
C1            C2   1.537       .  S
C1            C7   1.543       .  S
C1          C301   1.539   1_554  S
C1          C278   1.538       .  S
C2            H9   1.086       .  S
C2            C3   1.367       .  D
C3            C4   1.539       .  S
C3          C268   1.484       .  S
C4          C304   1.541       .  S
C4          C302   1.541   1_554  S
C4           H10   1.108       .  S
C5          C297   1.540       .  S
C5           H11   1.086       .  S
C5            C6   1.371       .  D
C6          C300   1.541       .  S
C6          C261   1.492       .  S
C7           H12   1.079   1_554  S
C7          C304   1.366       .  D
C8          C300   1.541       .  S
C8          C303   1.366       .  D
C8          C587   1.493       .  S
C13          C19   1.541       .  S
C13          C17   1.537   1_556  S
C13         C310   1.534       .  S
C13         C281   1.542       .  S
C14         C309   1.534       .  S
C14          H21   1.087       .  S
C14          C15   1.365       .  D
C15         C312   1.543       .  S
C15         C228   1.481       .  S
C16          C20   1.542       .  S
C16          C18   1.543   1_556  S
C16         C311   1.543       .  S
C16          H22   1.108       .  S
C17          H23   1.086       .  S
C17          C18   1.370       .  D
C18         C238   1.493       .  S
C19          H24   1.077       .  S
C19          C20   1.368       .  D
C20         C251   1.493   1_556  S
C25          C26   1.536       .  S
C25          C31   1.540       .  S
C25         C325   1.543   1_554  S
C25         C218   1.540       .  S
C26          H33   1.086       .  S
C26          C27   1.370       .  D
C27          C28   1.538       .  S
C27         C198   1.488       .  S
C28          C32   1.536       .  S
C28         C326   1.538   1_554  S
C28          H34   1.108       .  S
C29         C321   1.543       .  S
C29          H35   1.081       .  S
C29          C30   1.370       .  D
C30         C324   1.538       .  S
C30         C208   1.487       .  S
C31          H36   1.085       .  S
C31          C32   1.365       .  D
C32         C248   1.487       .  S
C37          C43   1.544       .  S
C37          C41   1.539       .  S
C37         C334   1.534       .  S
C37         C191   1.534       .  S
C38         C333   1.534   1_554  S
C38          H45   1.087       .  S
C38          C39   1.362       .  D
C39         C336   1.536   1_554  S
C39         C171   1.478       .  S
C40          C44   1.544       .  S
C40          C42   1.542       .  S
C40         C335   1.536       .  S
C40          H46   1.109       .  S
C41          H47   1.085       .  S
C41          C42   1.370       .  D
C42         C178   1.491       .  S
C43          H48   1.081       .  S
C43          C44   1.370       .  D
C44         C221   1.496       .  S
C49          C50   1.537       .  S
C49          C55   1.539       .  S
C49         C349   1.533       .  S
C49         C188   1.538       .  S
C50          H57   1.086       .  S
C50          C51   1.364       .  D
C51         C348   1.535       .  S
C51         C141   1.476       .  S
C52          C56   1.544   1_554  S
C52          C54   1.544       .  S
C52         C347   1.535   1_554  S
C52          H58   1.110       .  S
C53         C345   1.533       .  S
C53          H59   1.086       .  S
C53          C54   1.370       .  D
C54         C148   1.491       .  S
C55          H60   1.080       .  S
C55         C352   1.370       .  D
C56         C351   1.370       .  D
C56         C158   1.492   1_545  S
C61          C62   1.535   1_556  S
C61          C67   1.541       .  S
C61         C361   1.542       .  S
C61         C288   1.538       .  S
C62          H69   1.086       .  S
C62          C63   1.363       .  D
C63          C64   1.535   1_554  S
C63         C118   1.476       .  S
C64          C68   1.541       .  S
C64         C362   1.542       .  S
C64          H70   1.110       .  S
C65         C357   1.542       .  S
C65          H71   1.082       .  S
C65          C66   1.371       .  D
C66         C360   1.542       .  S
C66         C128   1.489       .  S
C67          H72   1.086       .  S
C67          C68   1.368       .  D
C68         C161   1.492       .  S
O73          C88   1.262       .  A
O73         Al81   1.904       .  S
C74          O84   1.262       .  A
C74          O75   1.263       .  A
C74         C168   1.482       .  S
O75         Al77   1.909       .  S
O76          C78   1.260       .  A
O76         Al77   1.893       .  S
Al77         O85   1.903       .  S
Al77         O87   1.904       .  S
Al77         O86   1.781       .  S
C78          O91   1.265       .  A
C78         C121   1.485       .  S
O79          C89   1.261       .  A
O79         Al81   1.908       .  S
O80          C93   1.260       .  A
O80         Al90   1.882       .  S
Al81         O94   1.939       .  S
Al81         O91   1.926       .  S
Al81         O86   1.788       .  S
O82          C89   1.261       .  A
O82         Al90   1.912       .  S
O83          C92   1.262       .  A
O83         Al90   1.914       .  S
O84         Al90   1.900       .  S
O85          C92   1.261       .  A
O86         Al90   1.781       .  S
O87          C88   1.262       .  A
C88         C131   1.482       .  S
C89         C241   1.476       .  S
C92         C181   1.484       .  S
C93          O94   1.268       .  A
C93         C231   1.484       .  S
O95         C110   1.258       .  A
O95        Al103   1.898       .  S
C96         O106   1.264       .  A
C96          O97   1.266       .  A
C96         C271   1.480       .  S
O97         Al99   1.920       .  S
O98         C100   1.261       .  A
O98         Al99   1.887       .  S
Al99        O107   1.910       .  S
Al99        O109   1.909       .  S
Al99        O108   1.778       .  S
C100        O113   1.268       .  A
C100        C201   1.486       .  S
O101        C111   1.259       .  A
O101       Al103   1.905       .  S
O102        C115   1.260       .  A
O102       Al112   1.876       .  S
Al103       O116   1.939       .  S
Al103       O113   1.932       .  S
Al103       O108   1.781       .  S
O104        C111   1.262       .  A
O104       Al112   1.918       .  S
O105        C114   1.263       .  A
O105       Al112   1.923       .  S
O106       Al112   1.898       .  S
O107        C114   1.261       .  A
O108       Al112   1.778       .  S
O109        C110   1.259       .  A
C110        C211   1.465       .  S
C111        C151   1.477       .  S
C114        C258   1.473       .  S
C115        O116   1.268       .  A
C115        C138   1.482       .  S
C117        C118   1.399       .  A
C117        C122   1.399       .  A
C117        H124   1.082       .  S
C118        C119   1.403       .  A
C119        C120   1.399       .  A
C119        F126   1.358       .  S
C120        C121   1.408       .  A
C120        H125   1.083       .  S
C121        C122   1.411       .  A
C122        F123   1.357       .  S
C127        C128   1.407       .  A
C127        C132   1.403       .  A
C127        H134   1.083       .  S
C128        C129   1.409       .  A
C129        C130   1.394       .  A
C129        F136   1.357       .  S
C130        C131   1.404       .  A
C130        H135   1.083       .  S
C131        C132   1.408       .  A
C132        F133   1.357       .  S
C137        C138   1.409       .  A
C137        C142   1.404       .  A
C137        H144   1.083       .  S
C138        C139   1.410       .  A
C139        C140   1.391       .  A
C139        F146   1.358       .  S
C140        C141   1.400       .  A
C140        H145   1.084       .  S
C141        C142   1.403       .  A
C142        F143   1.357       .  S
C147        C148   1.408       .  A
C147        C152   1.404       .  A
C147        H154   1.083       .  S
C148        C149   1.408       .  A
C149        C150   1.396       .  A
C149        F156   1.357       .  S
C150        C151   1.402       .  A
C150        H155   1.084       .  S
C151        C152   1.405       .  A
C152        F153   1.358       .  S
C157        C162   1.406       .  A
C157        C750   1.406   1_554  A
C157        H164   1.083       .  S
C158        C749   1.406   1_556  A
C158       C1047   1.409       .  A
C159        C160   1.396       .  A
C159       C1046   1.409       .  A
C159        F758   1.357       .  S
C160        C457   1.404       .  A
C160        H165   1.083       .  S
C161        C162   1.408   1_556  A
C161        C456   1.404       .  A
C162        F163   1.355       .  S
F166        C751   1.357       .  S
C167        C168   1.408       .  A
C167        C172   1.396       .  A
C167        H174   1.083       .  S
C168        C169   1.409       .  A
C169        C170   1.398       .  A
C169        F176   1.357       .  S
C170        C171   1.404       .  A
C170        H175   1.083       .  S
C171        C172   1.401       .  A
C172        F173   1.358       .  S
C177        C178   1.405       .  A
C177        C182   1.401       .  A
C177        H184   1.079       .  S
C178        C179   1.409       .  A
C179        C180   1.397       .  A
C179        F186   1.357       .  S
C180        C181   1.405       .  A
C180        H185   1.083       .  S
C181        C182   1.408       .  A
C182        F183   1.357       .  S
C187        C192   1.397       .  A
C187        C484   1.410   1_556  A
C187        H194   1.082       .  S
C188        C189   1.414       .  A
C188        C483   1.410       .  A
C189        C190   1.402       .  A
C189        F196   1.355       .  S
C190        C191   1.410   1_655  A
C190        H195   1.077   1_655  S
C191        C488   1.410   1_455  A
C192        C487   1.410   1_655  A
C192        F193   1.358   1_655  S
C197        C198   1.404       .  A
C197        C202   1.397       .  A
C197        H204   1.083       .  S
C198        C199   1.408       .  A
C199        C200   1.400       .  A
C199        F206   1.357       .  S
C200        C201   1.406       .  A
C200        H205   1.083       .  S
C201        C202   1.411       .  A
C202        F203   1.358       .  S
C207        C208   1.408       .  A
C207        C212   1.398       .  A
C207        H214   1.082       .  S
C208        C209   1.409       .  A
C209        C210   1.396       .  A
C209        F216   1.357       .  S
C210        C211   1.401       .  A
C210        H215   1.084       .  S
C211        C212   1.401       .  A
C212        F213   1.358       .  S
C217        C218   1.411       .  A
C217        C222   1.398       .  A
C217        H224   1.082       .  S
C218        C515   1.416   1_554  A
C219        C220   1.403       .  A
C219        C514   1.416       .  A
C219        F226   1.355       .  S
C220        C221   1.404       .  A
C220        H225   1.079       .  S
C221        C518   1.408       .  A
C222        C517   1.408       .  A
C222        F223   1.357       .  S
C227        C228   1.402       .  A
C227        C232   1.395       .  A
C227        H234   1.084       .  S
C228        C229   1.403       .  A
C229        C230   1.403       .  A
C229        F236   1.354       .  S
C230        C231   1.408       .  A
C230        H235   1.083       .  S
C231        C232   1.410       .  A
C232        F233   1.358       .  S
C237        C238   1.407       .  A
C237        C242   1.395       .  A
C237        H244   1.083       .  S
C238        C239   1.412       .  A
C239        C240   1.403       .  A
C239        F246   1.356       .  S
C240        C241   1.403       .  A
C240        H245   1.083       .  S
C241        C242   1.405       .  A
C242        F243   1.358       .  S
C247        C252   1.405       .  A
C247       C1136   1.405       .  A
C247        H846   1.083       .  S
C248       C1135   1.405   1_554  A
C248        C841   1.405       .  A
C249        C250   1.394       .  A
C249        C840   1.405       .  A
C249        F848   1.358       .  S
C250        C251   1.406       .  A
C250        H255   1.083       .  S
C251        C548   1.408   1_554  A
C252        C547   1.408       .  A
C252        F253   1.353       .  S
H254        C839   1.083       .  S
F256        C841   1.358       .  S
C257        C258   1.401       .  A
C257        C262   1.402       .  A
C257        H264   1.084       .  S
C258        C259   1.403       .  A
C259        C260   1.397       .  A
C259        F266   1.358       .  S
C260        C261   1.406       .  A
C260        H265   1.083       .  S
C261        C262   1.412       .  A
C262        F263   1.357       .  S
C267        C268   1.406       .  A
C267        C272   1.398       .  A
C267        H274   1.083       .  S
C268        C269   1.404       .  A
C269        C270   1.397       .  A
C269        F276   1.357       .  S
C270        C271   1.407       .  A
C270        H275   1.083       .  S
C271        C272   1.407       .  A
C272        F273   1.358       .  S
C277        C278   1.410       .  A
C277        C282   1.399   1_655  A
C277        H284   1.074       .  S
C278        C575   1.409   1_554  A
C279        C280   1.399   1_655  A
C279        C574   1.409       .  A
C279        F286   1.358       .  S
C280        C577   1.411       .  A
C280        H285   1.083       .  S
C281        C282   1.416   1_556  A
C281        C576   1.411       .  A
C282        F283   1.352       .  S
C287        C288   1.409   1_554  A
C287        C292   1.397       .  A
C287        H294   1.082       .  S
C288        C585   1.418       .  A
C289        C290   1.405       .  A
C289        C584   1.418       .  A
C289        F296   1.355       .  S
C290        C587   1.403       .  A
C290        H295   1.083       .  S
C291        C304   1.493       .  S
C291        C292   1.407       .  A
C291        C586   1.403   1_554  A
C292        F293   1.358       .  S
C297        C298   1.536       .  S
C297        C303   1.543       .  S
C297        C574   1.537       .  S
C298        H305   1.086       .  S
C298        C299   1.367       .  D
C299        C300   1.539       .  S
C299        C564   1.483       .  S
C300        H306   1.108       .  S
C301        H307   1.086       .  S
C301        C302   1.371       .  D
C302        C557   1.492       .  S
C303        H308   1.080       .  S
C309        C315   1.541       .  S
C309        C313   1.536       .  S
C309        C577   1.542       .  S
C310        H317   1.087       .  S
C310        C311   1.365       .  D
C311        C524   1.480       .  S
C312        C316   1.543       .  S
C312        C314   1.543       .  S
C312        H318   1.108       .  S
C313        H319   1.086       .  S
C313        C314   1.370       .  D
C314        C534   1.493       .  S
C315        H320   1.077       .  S
C315        C316   1.369       .  D
C316        C547   1.493       .  S
C321        C322   1.536       .  S
C321        C327   1.540       .  S
C321        C514   1.540       .  S
C322        H329   1.086       .  S
C322        C323   1.370       .  D
C323        C324   1.538       .  S
C323        C494   1.488       .  S
C324        C328   1.536       .  S
C324        H330   1.108       .  S
C325        H331   1.081       .  S
C325        C326   1.370       .  D
C326        C504   1.487       .  S
C327        H332   1.085       .  S
C327        C328   1.365       .  D
C328        C544   1.487       .  S
C333        C339   1.544       .  S
C333        C337   1.539       .  S
C333        C487   1.534       .  S
C334        H341   1.087       .  S
C334        C335   1.362       .  D
C335        C467   1.478       .  S
C336        C340   1.544   1_556  S
C336        C338   1.542       .  S
C336        H342   1.109       .  S
C337        H343   1.085       .  S
C337        C338   1.370       .  D
C338        C474   1.491       .  S
C339        H344   1.081       .  S
C339        C340   1.370   1_556  D
C340        C517   1.496       .  S
C345        C346   1.537   1_554  S
C345        C351   1.539   1_554  S
C345        C484   1.538       .  S
C346        H353   1.086       .  S
C346        C347   1.364       .  D
C347        C437   1.476       .  S
C348        C352   1.544       .  S
C348        C350   1.544       .  S
C348        H354   1.110       .  S
C349        H355   1.086       .  S
C349        C350   1.370       .  D
C350        C444   1.491       .  S
C351        H356   1.080       .  S
C352        C454   1.492   1_545  S
C357        C358   1.535       .  S
C357        C363   1.541       .  S
C357        C584   1.538       .  S
C358        H365   1.086       .  S
C358        C359   1.364       .  D
C359        C360   1.535       .  S
C359        C414   1.476       .  S
C360        C364   1.541       .  S
C360        H366   1.110       .  S
C361        H367   1.082       .  S
C361        C362   1.371       .  D
C362        C424   1.489       .  S
C363        H368   1.086       .  S
C363        C364   1.368       .  D
C364        C457   1.492       .  S
O369        C384   1.262       .  A
O369       Al377   1.903       .  S
C370        O380   1.262       .  A
C370        O371   1.263       .  A
C370        C464   1.482       .  S
O371       Al373   1.909       .  S
O372        C374   1.260       .  A
O372       Al373   1.893       .  S
Al373       O381   1.903       .  S
Al373       O383   1.904       .  S
Al373       O382   1.781       .  S
C374        O387   1.265       .  A
C374        C417   1.485       .  S
O375        C385   1.261       .  A
O375       Al377   1.908       .  S
O376        C389   1.260       .  A
O376       Al386   1.882       .  S
Al377       O390   1.939       .  S
Al377       O387   1.926       .  S
Al377       O382   1.788       .  S
O378        C385   1.261       .  A
O378       Al386   1.912       .  S
O379        C388   1.262       .  A
O379       Al386   1.914       .  S
O380       Al386   1.900       .  S
O381        C388   1.261       .  A
O382       Al386   1.781       .  S
O383        C384   1.262       .  A
C384        C427   1.482       .  S
C385        C537   1.476       .  S
C388        C477   1.484       .  S
C389        O390   1.268       .  A
C389        C527   1.484       .  S
O391        C406   1.258       .  A
O391       Al399   1.898       .  S
C392        O402   1.264       .  A
C392        O393   1.266       .  A
C392        C567   1.480       .  S
O393       Al395   1.920       .  S
O394        C396   1.261       .  A
O394       Al395   1.887       .  S
Al395       O403   1.910       .  S
Al395       O405   1.909       .  S
Al395       O404   1.778       .  S
C396        O409   1.268       .  A
C396        C497   1.486       .  S
O397        C407   1.259       .  A
O397       Al399   1.906       .  S
O398        C411   1.260       .  A
O398       Al408   1.876       .  S
Al399       O412   1.938       .  S
Al399       O409   1.932       .  S
Al399       O404   1.781       .  S
O400        C407   1.262       .  A
O400       Al408   1.918       .  S
O401        C410   1.263       .  A
O401       Al408   1.923       .  S
O402       Al408   1.898       .  S
O403        C410   1.261       .  A
O404       Al408   1.777       .  S
O405        C406   1.259       .  A
C406        C507   1.466       .  S
C407        C447   1.477       .  S
C410        C554   1.473       .  S
C411        O412   1.268       .  A
C411        C434   1.482       .  S
C413        C414   1.399       .  A
C413        C418   1.400       .  A
C413        H420   1.082       .  S
C414        C415   1.403       .  A
C415        C416   1.399       .  A
C415        F422   1.358       .  S
C416        C417   1.408       .  A
C416        H421   1.083       .  S
C417        C418   1.411       .  A
C418        F419   1.357       .  S
C423        C424   1.407       .  A
C423        C428   1.403       .  A
C423        H430   1.083       .  S
C424        C425   1.409       .  A
C425        C426   1.394       .  A
C425        F432   1.357       .  S
C426        C427   1.404       .  A
C426        H431   1.083       .  S
C427        C428   1.408       .  A
C428        F429   1.357       .  S
C433        C434   1.409       .  A
C433        C438   1.404       .  A
C433        H440   1.083       .  S
C434        C435   1.410       .  A
C435        C436   1.391       .  A
C435        F442   1.358       .  S
C436        C437   1.400       .  A
C436        H441   1.084       .  S
C437        C438   1.403       .  A
C438        F439   1.357       .  S
C443        C444   1.408       .  A
C443        C448   1.404       .  A
C443        H450   1.083       .  S
C444        C445   1.408       .  A
C445        C446   1.396       .  A
C445        F452   1.357       .  S
C446        C447   1.402       .  A
C446        H451   1.084       .  S
C447        C448   1.405       .  A
C448        F449   1.358       .  S
C453       C1046   1.406       .  A
C453        C458   1.406       .  A
C453        H460   1.083       .  S
C454       C1045   1.406       .  A
C454        C751   1.409       .  A
C455        C750   1.409       .  A
C455        C456   1.396       .  A
C455       F1054   1.357       .  S
C456        H461   1.083       .  S
C457        C458   1.408       .  A
C458        F459   1.355       .  S
F462       C1047   1.357       .  S
C463        C464   1.408       .  A
C463        C468   1.396       .  A
C463        H470   1.083       .  S
C464        C465   1.409       .  A
C465        C466   1.398       .  A
C465        F472   1.357       .  S
C466        C467   1.404       .  A
C466        H471   1.083       .  S
C467        C468   1.401       .  A
C468        F469   1.357       .  S
C473        C474   1.405       .  A
C473        C478   1.401       .  A
C473        H480   1.079       .  S
C474        C475   1.409       .  A
C475        C476   1.397       .  A
C475        F482   1.357       .  S
C476        C477   1.405       .  A
C476        H481   1.083       .  S
C477        C478   1.408       .  A
C478        F479   1.357       .  S
C483        C488   1.397       .  A
C483        H490   1.082       .  S
C484        C485   1.414       .  A
C485        C486   1.402       .  A
C485        F492   1.355       .  S
C486        C487   1.410   1_654  A
C486        H491   1.077   1_655  S
C488        F489   1.358   1_655  S
C493        C494   1.404       .  A
C493        C498   1.397       .  A
C493        H500   1.083       .  S
C494        C495   1.408       .  A
C495        C496   1.400       .  A
C495        F502   1.357       .  S
C496        C497   1.406       .  A
C496        H501   1.083       .  S
C497        C498   1.411       .  A
C498        F499   1.358       .  S
C503        C504   1.408       .  A
C503        C508   1.398       .  A
C503        H510   1.082       .  S
C504        C505   1.409       .  A
C505        C506   1.396       .  A
C505        F512   1.357       .  S
C506        C507   1.401       .  A
C506        H511   1.084       .  S
C507        C508   1.401       .  A
C508        F509   1.358       .  S
C513        C514   1.411       .  A
C513        C518   1.398       .  A
C513        H520   1.082       .  S
C515        C516   1.403       .  A
C515        F522   1.355       .  S
C516        C517   1.404   1_556  A
C516        H521   1.079       .  S
C518        F519   1.357       .  S
C523        C524   1.402       .  A
C523        C528   1.395       .  A
C523        H530   1.084       .  S
C524        C525   1.403       .  A
C525        C526   1.403       .  A
C525        F532   1.354       .  S
C526        C527   1.408       .  A
C526        H531   1.083       .  S
C527        C528   1.410       .  A
C528        F529   1.358       .  S
C533        C534   1.407       .  A
C533        C538   1.395       .  A
C533        H540   1.083       .  S
C534        C535   1.412       .  A
C535        C536   1.403       .  A
C535        F542   1.356       .  S
C536        C537   1.403       .  A
C536        H541   1.083       .  S
C537        C538   1.405       .  A
C538        F539   1.358       .  S
C543        C840   1.405   1_556  A
C543        C548   1.405       .  A
C543       H1142   1.083       .  S
C544        C839   1.405       .  A
C544       C1137   1.405       .  A
C545       C1136   1.405       .  A
C545        C546   1.394       .  A
C545       F1144   1.358       .  S
C546        C547   1.406       .  A
C546        H551   1.083       .  S
C548        F549   1.353       .  S
H550       C1135   1.083       .  S
F552       C1137   1.358       .  S
C553        C554   1.401       .  A
C553        C558   1.402       .  A
C553        H560   1.084       .  S
C554        C555   1.403       .  A
C555        C556   1.397       .  A
C555        F562   1.358       .  S
C556        C557   1.406       .  A
C556        H561   1.083       .  S
C557        C558   1.412       .  A
C558        F559   1.357       .  S
C563        C564   1.406       .  A
C563        C568   1.398       .  A
C563        H570   1.083       .  S
C564        C565   1.404       .  A
C565        C566   1.397       .  A
C565        F572   1.357       .  S
C566        C567   1.407       .  A
C566        H571   1.083       .  S
C567        C568   1.407       .  A
C568        F569   1.358       .  S
C573        C574   1.410       .  A
C573        C578   1.400   1_655  A
C573        H580   1.075       .  S
C575        C576   1.400   1_655  A
C575        F582   1.358       .  S
C576        H581   1.083       .  S
C577        C578   1.416       .  A
C578        F579   1.352       .  S
C583        C584   1.409       .  A
C583        C588   1.397       .  A
C583        H590   1.082       .  S
C585        C586   1.405       .  A
C585        F592   1.355       .  S
C586        H591   1.083       .  S
C587        C588   1.407       .  A
C588        F589   1.358       .  S
C593        C594   1.536       .  S
C593        C599   1.543       .  S
C593        C893   1.540   1_554  S
C593        C870   1.537       .  S
C594        H601   1.086       .  S
C594        C595   1.367       .  D
C595        C596   1.539       .  S
C595        C860   1.483       .  S
C596        C896   1.541       .  S
C596        C894   1.541   1_554  S
C596        H602   1.108       .  S
C597        C889   1.539       .  S
C597        H603   1.086       .  S
C597        C598   1.371       .  D
C598        C892   1.541       .  S
C598        C853   1.492       .  S
C599        H604   1.080   1_554  S
C599        C896   1.366       .  D
C600        C892   1.541       .  S
C600        C895   1.366       .  D
C600       C1179   1.493       .  S
C605        C902   1.534       .  S
C605        C611   1.541       .  S
C605        C609   1.536   1_556  S
C605        C873   1.541       .  S
C606        C901   1.534       .  S
C606        H613   1.087       .  S
C606        C607   1.365       .  D
C607        C904   1.543       .  S
C607        C820   1.480       .  S
C608        C903   1.543       .  S
C608        C612   1.543       .  S
C608        C610   1.543   1_556  S
C608        H614   1.108       .  S
C609        H615   1.086       .  S
C609        C610   1.370       .  D
C610        C830   1.493       .  S
C611        H616   1.077       .  S
C611        C612   1.369       .  D
C612        C843   1.493   1_556  S
C617        C618   1.536       .  S
C617        C623   1.540       .  S
C617        C917   1.543   1_554  S
C617        C810   1.540       .  S
C618        H625   1.086       .  S
C618        C619   1.370       .  D
C619        C620   1.538       .  S
C619        C790   1.488       .  S
C620        C624   1.536       .  S
C620        C918   1.538   1_554  S
C620        H626   1.108       .  S
C621        C913   1.543       .  S
C621        H627   1.081       .  S
C621        C622   1.370       .  D
C622        C916   1.538       .  S
C622        C800   1.487       .  S
C623        H628   1.085       .  S
C623        C624   1.365       .  D
C624        C840   1.487       .  S
C629        C926   1.534       .  S
C629        C635   1.544       .  S
C629        C633   1.539       .  S
C629        C783   1.534       .  S
C630        C925   1.534   1_554  S
C630        H637   1.087       .  S
C630        C631   1.362       .  D
C631        C928   1.536   1_554  S
C631        C763   1.478       .  S
C632        C927   1.536       .  S
C632        C636   1.544       .  S
C632        C634   1.542       .  S
C632        H638   1.109       .  S
C633        H639   1.085       .  S
C633        C634   1.370       .  D
C634        C770   1.491       .  S
C635        H640   1.081       .  S
C635        C636   1.370       .  D
C636        C813   1.496       .  S
C641        C642   1.537       .  S
C641        C647   1.539       .  S
C641        C941   1.533       .  S
C641        C780   1.538       .  S
C642        H649   1.086       .  S
C642        C643   1.364       .  D
C643        C940   1.535       .  S
C643        C733   1.476       .  S
C644        C939   1.535   1_554  S
C644        C648   1.544   1_554  S
C644        C646   1.544       .  S
C644        H650   1.110       .  S
C645        C937   1.533       .  S
C645        H651   1.086       .  S
C645        C646   1.370       .  D
C646        C740   1.491       .  S
C647        H652   1.080       .  S
C647        C944   1.370       .  D
C648        C943   1.370       .  D
C648        C750   1.492       .  S
C653        C654   1.535   1_556  S
C653        C659   1.541       .  S
C653        C953   1.542       .  S
C653        C880   1.538       .  S
C654        H661   1.086       .  S
C654        C655   1.364       .  D
C655        C656   1.535   1_554  S
C655        C710   1.476       .  S
C656        C660   1.541       .  S
C656        C954   1.542       .  S
C656        H662   1.110       .  S
C657        C949   1.542       .  S
C657        H663   1.082       .  S
C657        C658   1.371       .  D
C658        C952   1.542       .  S
C658        C720   1.489       .  S
C659        H664   1.086       .  S
C659        C660   1.368       .  D
C660        C753   1.492       .  S
O665        C680   1.262       .  A
O665       Al673   1.903       .  S
C666        O676   1.262       .  A
C666        O667   1.263       .  A
C666        C760   1.482       .  S
O667       Al669   1.909       .  S
O668        C670   1.260       .  A
O668       Al669   1.893       .  S
Al669       O677   1.903       .  S
Al669       O679   1.904       .  S
Al669       O678   1.781       .  S
C670        O683   1.265       .  A
C670        C713   1.485       .  S
O671        C681   1.261       .  A
O671       Al673   1.908       .  S
O672        C685   1.260       .  A
O672       Al682   1.882       .  S
Al673       O686   1.939       .  S
Al673       O683   1.926       .  S
Al673       O678   1.788       .  S
O674        C681   1.261       .  A
O674       Al682   1.912       .  S
O675        C684   1.262       .  A
O675       Al682   1.914       .  S
O676       Al682   1.900       .  S
O677        C684   1.261       .  A
O678       Al682   1.781       .  S
O679        C680   1.262       .  A
C680        C723   1.482       .  S
C681        C833   1.476       .  S
C684        C773   1.484       .  S
C685        O686   1.268       .  A
C685        C823   1.484       .  S
O687        C702   1.258       .  A
O687       Al695   1.898       .  S
C688        O698   1.264       .  A
C688        O689   1.266       .  A
C688        C863   1.480       .  S
O689       Al691   1.920       .  S
O690        C692   1.261       .  A
O690       Al691   1.887       .  S
Al691       O699   1.910       .  S
Al691       O701   1.909       .  S
Al691       O700   1.778       .  S
C692        O705   1.268       .  A
C692        C793   1.486       .  S
O693        C703   1.259       .  A
O693       Al695   1.906       .  S
O694        C707   1.260       .  A
O694       Al704   1.876       .  S
Al695       O708   1.938       .  S
Al695       O705   1.932       .  S
Al695       O700   1.781       .  S
O696        C703   1.262       .  A
O696       Al704   1.918       .  S
O697        C706   1.263       .  A
O697       Al704   1.923       .  S
O698       Al704   1.898       .  S
O699        C706   1.261       .  A
O700       Al704   1.777       .  S
O701        C702   1.259       .  A
C702        C803   1.466       .  S
C703        C743   1.477       .  S
C706        C850   1.473       .  S
C707        O708   1.268       .  A
C707        C730   1.482       .  S
C709        C710   1.399       .  A
C709        C714   1.400       .  A
C709        H716   1.082       .  S
C710        C711   1.403       .  A
C711        C712   1.399       .  A
C711        F718   1.358       .  S
C712        C713   1.408       .  A
C712        H717   1.083       .  S
C713        C714   1.411       .  A
C714        F715   1.357       .  S
C719        C720   1.407       .  A
C719        C724   1.403       .  A
C719        H726   1.083       .  S
C720        C721   1.409       .  A
C721        C722   1.394       .  A
C721        F728   1.357       .  S
C722        C723   1.404       .  A
C722        H727   1.083       .  S
C723        C724   1.408       .  A
C724        F725   1.357       .  S
C729        C730   1.409       .  A
C729        C734   1.404       .  A
C729        H736   1.083       .  S
C730        C731   1.410       .  A
C731        C732   1.391       .  A
C731        F738   1.358       .  S
C732        C733   1.400       .  A
C732        H737   1.084       .  S
C733        C734   1.403       .  A
C734        F735   1.357       .  S
C739        C740   1.408       .  A
C739        C744   1.404       .  A
C739        H746   1.083       .  S
C740        C741   1.408       .  A
C741        C742   1.396       .  A
C741        F748   1.357       .  S
C742        C743   1.402       .  A
C742        H747   1.084       .  S
C743        C744   1.405       .  A
C744        F745   1.358       .  S
C749        C754   1.406       .  A
C749        H756   1.083       .  S
C751        C752   1.396       .  A
C752       C1049   1.404       .  A
C752        H757   1.083       .  S
C753       C1048   1.404       .  A
C753        C754   1.408   1_556  A
C754        F755   1.355       .  S
C759        C760   1.408       .  A
C759        C764   1.396       .  A
C759        H766   1.083       .  S
C760        C761   1.409       .  A
C761        C762   1.398       .  A
C761        F768   1.357       .  S
C762        C763   1.404       .  A
C762        H767   1.083       .  S
C763        C764   1.401       .  A
C764        F765   1.357       .  S
C769        C770   1.405       .  A
C769        C774   1.401       .  A
C769        H776   1.079       .  S
C770        C771   1.409       .  A
C771        C772   1.397       .  A
C771        F778   1.357       .  S
C772        C773   1.405       .  A
C772        H777   1.083       .  S
C773        C774   1.408       .  A
C774        F775   1.357       .  S
C779       C1076   1.410   1_556  A
C779        C784   1.397       .  A
C779        H786   1.082       .  S
C780       C1075   1.410       .  A
C780        C781   1.414       .  A
C781        C782   1.402       .  A
C781        F788   1.355       .  S
C782        C783   1.410   1_655  A
C782        H787   1.077   1_655  S
C783       C1080   1.410   1_455  A
C784       C1079   1.410   1_655  A
C784        F785   1.358   1_655  S
C789        C790   1.404       .  A
C789        C794   1.397       .  A
C789        H796   1.083       .  S
C790        C791   1.408       .  A
C791        C792   1.400       .  A
C791        F798   1.357       .  S
C792        C793   1.406       .  A
C792        H797   1.083       .  S
C793        C794   1.411       .  A
C794        F795   1.358       .  S
C799        C800   1.408       .  A
C799        C804   1.398       .  A
C799        H806   1.082       .  S
C800        C801   1.409       .  A
C801        C802   1.396       .  A
C801        F808   1.357       .  S
C802        C803   1.401       .  A
C802        H807   1.084       .  S
C803        C804   1.401       .  A
C804        F805   1.358       .  S
C809        C810   1.411       .  A
C809        C814   1.398       .  A
C809        H816   1.082       .  S
C810       C1107   1.416   1_554  A
C811       C1106   1.416       .  A
C811        C812   1.403       .  A
C811        F818   1.355       .  S
C812        C813   1.404       .  A
C812        H817   1.079       .  S
C813       C1110   1.408       .  A
C814       C1109   1.408       .  A
C814        F815   1.357       .  S
C819        C820   1.402       .  A
C819        C824   1.395       .  A
C819        H826   1.084       .  S
C820        C821   1.403       .  A
C821        C822   1.403       .  A
C821        F828   1.354       .  S
C822        C823   1.408       .  A
C822        H827   1.083       .  S
C823        C824   1.410       .  A
C824        F825   1.358       .  S
C829        C830   1.407       .  A
C829        C834   1.395       .  A
C829        H836   1.083       .  S
C830        C831   1.412       .  A
C831        C832   1.403       .  A
C831        F838   1.356       .  S
C832        C833   1.403       .  A
C832        H837   1.083       .  S
C833        C834   1.405       .  A
C834        F835   1.358       .  S
C839        C844   1.405   1_545  A
C841        C842   1.394   1_545  A
C842        C843   1.406       .  A
C842        H847   1.083       .  S
C843       C1140   1.408   1_554  A
C844       C1139   1.408       .  A
C844        F845   1.353       .  S
C849        C850   1.401       .  A
C849        C854   1.402       .  A
C849        H856   1.084       .  S
C850        C851   1.403       .  A
C851        C852   1.397       .  A
C851        F858   1.358       .  S
C852        C853   1.406       .  A
C852        H857   1.083       .  S
C853        C854   1.412       .  A
C854        F855   1.357       .  S
C859        C860   1.406       .  A
C859        C864   1.398       .  A
C859        H866   1.083       .  S
C860        C861   1.404       .  A
C861        C862   1.397       .  A
C861        F868   1.357       .  S
C862        C863   1.407       .  A
C862        H867   1.083       .  S
C863        C864   1.407       .  A
C864        F865   1.358       .  S
C869        C870   1.410       .  A
C869        C874   1.400   1_655  A
C869        H876   1.075       .  S
C870       C1167   1.409   1_554  A
C871       C1166   1.409       .  A
C871        C872   1.400   1_655  A
C871        F878   1.358       .  S
C872       C1169   1.411       .  A
C872        H877   1.083       .  S
C873       C1168   1.411       .  A
C873        C874   1.416   1_556  A
C874        F875   1.352       .  S
C879        C880   1.409   1_554  A
C879        C884   1.397       .  A
C879        H886   1.082       .  S
C880       C1177   1.418       .  A
C881       C1176   1.418       .  A
C881        C882   1.405       .  A
C881        F888   1.355       .  S
C882       C1179   1.403       .  A
C882        H887   1.083       .  S
C883        C896   1.493       .  S
C883       C1178   1.403   1_554  A
C883        C884   1.407       .  A
C884        F885   1.358       .  S
C889        C890   1.537       .  S
C889        C895   1.543       .  S
C889       C1166   1.538       .  S
C890        H897   1.086       .  S
C890        C891   1.367       .  D
C891        C892   1.539       .  S
C891       C1156   1.483       .  S
C892        H898   1.108       .  S
C893        H899   1.086       .  S
C893        C894   1.370       .  D
C894       C1149   1.492       .  S
C895        H900   1.079       .  S
C901        C907   1.541       .  S
C901        C905   1.537       .  S
C901       C1169   1.542       .  S
C902        H909   1.087       .  S
C902        C903   1.365       .  D
C903       C1116   1.481       .  S
C904        C908   1.542       .  S
C904        C906   1.543       .  S
C904        H910   1.108       .  S
C905        H911   1.086       .  S
C905        C906   1.370       .  D
C906       C1126   1.493       .  S
C907        H912   1.077       .  S
C907        C908   1.368       .  D
C908       C1139   1.493       .  S
C913        C914   1.536       .  S
C913        C919   1.540       .  S
C913       C1106   1.540       .  S
C914        H921   1.086       .  S
C914        C915   1.370       .  D
C915        C916   1.538       .  S
C915       C1086   1.488       .  S
C916        C920   1.536       .  S
C916        H922   1.108       .  S
C917        H923   1.081       .  S
C917        C918   1.370       .  D
C918       C1096   1.487       .  S
C919        H924   1.085       .  S
C919        C920   1.365       .  D
C920       C1136   1.487       .  S
C925        C931   1.544       .  S
C925        C929   1.539       .  S
C925       C1079   1.534       .  S
C926        H933   1.087       .  S
C926        C927   1.362       .  D
C927       C1059   1.478       .  S
C928        C932   1.544   1_556  S
C928        C930   1.542       .  S
C928        H934   1.109       .  S
C929        H935   1.085       .  S
C929        C930   1.370       .  D
C930       C1066   1.491       .  S
C931        H936   1.081       .  S
C931        C932   1.370   1_556  D
C932       C1109   1.496       .  S
C937        C938   1.537   1_554  S
C937        C943   1.539   1_554  S
C937       C1076   1.538       .  S
C938        H945   1.086       .  S
C938        C939   1.364       .  D
C939       C1029   1.476       .  S
C940        C944   1.544       .  S
C940        C942   1.544       .  S
C940        H946   1.110       .  S
C941        H947   1.086       .  S
C941        C942   1.370       .  D
C942       C1036   1.491       .  S
C943        H948   1.080       .  S
C944       C1046   1.492       .  S
C949        C950   1.535       .  S
C949        C955   1.541       .  S
C949       C1176   1.538       .  S
C950        H957   1.086       .  S
C950        C951   1.363       .  D
C951        C952   1.535       .  S
C951       C1006   1.476       .  S
C952        C956   1.541       .  S
C952        H958   1.110       .  S
C953        H959   1.082       .  S
C953        C954   1.371       .  D
C954       C1016   1.489       .  S
C955        H960   1.086       .  S
C955        C956   1.368       .  D
C956       C1049   1.492       .  S
O961        C976   1.262       .  A
O961       Al969   1.904       .  S
C962        O972   1.262       .  A
C962        O963   1.263       .  A
C962       C1056   1.482       .  S
O963       Al965   1.909       .  S
O964        C966   1.260       .  A
O964       Al965   1.893       .  S
Al965       O973   1.903       .  S
Al965       O975   1.904       .  S
Al965       O974   1.781       .  S
C966        O979   1.265       .  A
C966       C1009   1.485       .  S
O967        C977   1.261       .  A
O967       Al969   1.908       .  S
O968        C981   1.260       .  A
O968       Al978   1.882       .  S
Al969       O982   1.939       .  S
Al969       O979   1.926       .  S
Al969       O974   1.788       .  S
O970        C977   1.261       .  A
O970       Al978   1.912       .  S
O971        C980   1.262       .  A
O971       Al978   1.914       .  S
O972       Al978   1.900       .  S
O973        C980   1.261       .  A
O974       Al978   1.781       .  S
O975        C976   1.262       .  A
C976       C1019   1.482       .  S
C977       C1129   1.476       .  S
C980       C1069   1.484       .  S
C981        O982   1.268       .  A
C981       C1119   1.484       .  S
O983        C998   1.258       .  A
O983       Al991   1.898       .  S
C984        O994   1.264       .  A
C984        O985   1.266       .  A
C984       C1159   1.480       .  S
O985       Al987   1.920       .  S
O986        C988   1.261       .  A
O986       Al987   1.887       .  S
Al987       O995   1.910       .  S
Al987       O997   1.909       .  S
Al987       O996   1.778       .  S
C988       O1001   1.268       .  A
C988       C1089   1.486       .  S
O989        C999   1.259       .  A
O989       Al991   1.905       .  S
O990       C1003   1.260       .  A
O990      Al1000   1.876       .  S
Al991      O1004   1.939       .  S
Al991      O1001   1.932       .  S
Al991       O996   1.781       .  S
O992        C999   1.262       .  A
O992      Al1000   1.918       .  S
O993       C1002   1.263       .  A
O993      Al1000   1.923       .  S
O994      Al1000   1.898       .  S
O995       C1002   1.261       .  A
O996      Al1000   1.778       .  S
O997        C998   1.259       .  A
C998       C1099   1.465       .  S
C999       C1039   1.477       .  S
C1002      C1146   1.473       .  S
C1003      O1004   1.268       .  A
C1003      C1026   1.482       .  S
C1005      C1006   1.399       .  A
C1005      C1010   1.399       .  A
C1005      H1012   1.082       .  S
C1006      C1007   1.403       .  A
C1007      C1008   1.399       .  A
C1007      F1014   1.358       .  S
C1008      C1009   1.408       .  A
C1008      H1013   1.083       .  S
C1009      C1010   1.411       .  A
C1010      F1011   1.357       .  S
C1015      C1016   1.407       .  A
C1015      C1020   1.403       .  A
C1015      H1022   1.083       .  S
C1016      C1017   1.409       .  A
C1017      C1018   1.394       .  A
C1017      F1024   1.357       .  S
C1018      C1019   1.404       .  A
C1018      H1023   1.083       .  S
C1019      C1020   1.408       .  A
C1020      F1021   1.357       .  S
C1025      C1026   1.409       .  A
C1025      C1030   1.404       .  A
C1025      H1032   1.083       .  S
C1026      C1027   1.410       .  A
C1027      C1028   1.391       .  A
C1027      F1034   1.358       .  S
C1028      C1029   1.400       .  A
C1028      H1033   1.084       .  S
C1029      C1030   1.403       .  A
C1030      F1031   1.357       .  S
C1035      C1036   1.408       .  A
C1035      C1040   1.404       .  A
C1035      H1042   1.083       .  S
C1036      C1037   1.408       .  A
C1037      C1038   1.396       .  A
C1037      F1044   1.357       .  S
C1038      C1039   1.402       .  A
C1038      H1043   1.084       .  S
C1039      C1040   1.405       .  A
C1040      F1041   1.358       .  S
C1045      C1050   1.406       .  A
C1045      H1052   1.083       .  S
C1047      C1048   1.396       .  A
C1048      H1053   1.083       .  S
C1049      C1050   1.408       .  A
C1050      F1051   1.355       .  S
C1055      C1056   1.408       .  A
C1055      C1060   1.396       .  A
C1055      H1062   1.083       .  S
C1056      C1057   1.409       .  A
C1057      C1058   1.398       .  A
C1057      F1064   1.357       .  S
C1058      C1059   1.404       .  A
C1058      H1063   1.083       .  S
C1059      C1060   1.401       .  A
C1060      F1061   1.358       .  S
C1065      C1066   1.405       .  A
C1065      C1070   1.401       .  A
C1065      H1072   1.079       .  S
C1066      C1067   1.409       .  A
C1067      C1068   1.397       .  A
C1067      F1074   1.357       .  S
C1068      C1069   1.405       .  A
C1068      H1073   1.083       .  S
C1069      C1070   1.408       .  A
C1070      F1071   1.357       .  S
C1075      C1080   1.397       .  A
C1075      H1082   1.082       .  S
C1076      C1077   1.414       .  A
C1077      C1078   1.402       .  A
C1077      F1084   1.355       .  S
C1078      C1079   1.410   1_654  A
C1078      H1083   1.077   1_655  S
C1080      F1081   1.358   1_655  S
C1085      C1086   1.404       .  A
C1085      C1090   1.397       .  A
C1085      H1092   1.083       .  S
C1086      C1087   1.408       .  A
C1087      C1088   1.400       .  A
C1087      F1094   1.357       .  S
C1088      C1089   1.406       .  A
C1088      H1093   1.083       .  S
C1089      C1090   1.411       .  A
C1090      F1091   1.358       .  S
C1095      C1096   1.408       .  A
C1095      C1100   1.398       .  A
C1095      H1102   1.082       .  S
C1096      C1097   1.409       .  A
C1097      C1098   1.396       .  A
C1097      F1104   1.357       .  S
C1098      C1099   1.401       .  A
C1098      H1103   1.084       .  S
C1099      C1100   1.401       .  A
C1100      F1101   1.358       .  S
C1105      C1106   1.411       .  A
C1105      C1110   1.398       .  A
C1105      H1112   1.082       .  S
C1107      C1108   1.403       .  A
C1107      F1114   1.355       .  S
C1108      C1109   1.404   1_556  A
C1108      H1113   1.079       .  S
C1110      F1111   1.357       .  S
C1115      C1116   1.402       .  A
C1115      C1120   1.395       .  A
C1115      H1122   1.084       .  S
C1116      C1117   1.403       .  A
C1117      C1118   1.403       .  A
C1117      F1124   1.354       .  S
C1118      C1119   1.408       .  A
C1118      H1123   1.083       .  S
C1119      C1120   1.410       .  A
C1120      F1121   1.358       .  S
C1125      C1126   1.407       .  A
C1125      C1130   1.395       .  A
C1125      H1132   1.083       .  S
C1126      C1127   1.412       .  A
C1127      C1128   1.403       .  A
C1127      F1134   1.356       .  S
C1128      C1129   1.403       .  A
C1128      H1133   1.083       .  S
C1129      C1130   1.405       .  A
C1130      F1131   1.358       .  S
C1135      C1140   1.405   1_545  A
C1137      C1138   1.394   1_545  A
C1138      C1139   1.406       .  A
C1138      H1143   1.083       .  S
C1140      F1141   1.353       .  S
C1145      C1146   1.401       .  A
C1145      C1150   1.402       .  A
C1145      H1152   1.084       .  S
C1146      C1147   1.403       .  A
C1147      C1148   1.397       .  A
C1147      F1154   1.358       .  S
C1148      C1149   1.406       .  A
C1148      H1153   1.083       .  S
C1149      C1150   1.412       .  A
C1150      F1151   1.357       .  S
C1155      C1156   1.406       .  A
C1155      C1160   1.398       .  A
C1155      H1162   1.083       .  S
C1156      C1157   1.404       .  A
C1157      C1158   1.397       .  A
C1157      F1164   1.357       .  S
C1158      C1159   1.407       .  A
C1158      H1163   1.083       .  S
C1159      C1160   1.407       .  A
C1160      F1161   1.358       .  S
C1165      C1166   1.410       .  A
C1165      C1170   1.399   1_655  A
C1165      H1172   1.074       .  S
C1167      C1168   1.399   1_655  A
C1167      F1174   1.358       .  S
C1168      H1173   1.083       .  S
C1169      C1170   1.416       .  A
C1170      F1171   1.352       .  S
C1175      C1176   1.409       .  A
C1175      C1180   1.397       .  A
C1175      H1182   1.082       .  S
C1177      C1178   1.405       .  A
C1177      F1184   1.355       .  S
C1178      H1183   1.083       .  S
C1179      C1180   1.407       .  A
C1180      F1181   1.358       .  S
