geometry optimzed in LAMMPS
_audit_creation_date              2020-11-30 
_audit_creation_method            'lammps2cif' 
_symmetry_space_group_name_H-M    'P1' 
_symmetry_Int_Tables_number       1 
_symmetry_cell_setting            triclinic 
loop_ 
_symmetry_equiv_pos_as_xyz 
  x,y,z 
_cell_length_a                    46.59880088 
_cell_length_b                    25.954857964784246 
_cell_length_c                    44.86906066693606 
_cell_angle_alpha                 89.74327536446869 
_cell_angle_beta                  89.24824939669426 
_cell_angle_gamma                 89.17088942316529 
loop_ 
_atom_site_label 
_atom_site_type_symbol 
_atom_site_fract_x 
_atom_site_fract_y 
_atom_site_fract_z 
_atom_site_charge 
O1          O  0.48885157  0.47158309  0.43245785    -0.77300
C2          C  0.50176698  0.35640978  0.49979218     0.83800
O3          O  0.43182927  0.53523547  0.01234416    -0.78400
O4          O  0.01365889  0.47106378  0.06802048    -0.79900
O5          O  0.07036906  0.53167293  0.48582660    -0.79700
O6          O  0.02217836  0.53297866  0.43241261    -0.78300
Zn7        Zn  0.47799014  0.45747990  0.47443847     1.55700
O8          O  0.06850976  0.46906162  0.01991946    -0.79700
Cd9        Cd  0.02771458  0.54705348  0.47648664     1.59700
Cd10       Cd  0.47430284  0.54778723  0.02205785     1.59600
O11         O  0.01978528  0.62467453  0.48398683    -0.79700
O12         O  0.50093514  0.50165889  0.49910751    -1.90200
Cd13       Cd  0.02495531  0.45654523  0.02503746     1.59900
O14         O  0.48245467  0.62507079  0.01535512    -0.79600
O15         O  0.01828140  0.37941057  0.01757546    -0.78300
C16         C  0.42036659  0.50282577  0.49519095     0.84300
C17         C  0.50614117  0.50155530  0.41912932     0.83900
O18         O  0.48536087  0.38156400  0.48229932    -0.77200
C19         C  0.08258013  0.49990561  0.00339932     0.84700
O20         O  0.43524688  0.47118364  0.47960759    -0.77300
C21         C  0.00114639  0.64885547  0.99980539     0.84900
C22         C  0.99550367  0.50139431  0.08028766     0.85200
O23         O  0.47928686  0.53233062  0.06611222    -0.79800
O24         O  0.01525857  0.62098335  0.26567964    -0.77300
C25         C  0.00409210  0.49838113  0.33009354     0.83800
O26         O  0.06626748  0.46786165  0.22933509    -0.78400
O27         O  0.48133844  0.37798207  0.26694073    -0.79900
O28         O  0.42914235  0.53202825  0.23724863    -0.79700
O29         O  0.47901381  0.62330777  0.23406195    -0.78300
Zn30       Zn  0.02412501  0.54524382  0.27204962     1.55700
O31         O  0.43097441  0.47013164  0.27178494    -0.79700
Cd32       Cd  0.47180762  0.54591488  0.22742706     1.59700
Cd33       Cd  0.02291643  0.45511526  0.22456821     1.59600
O34         O  0.47800455  0.53085147  0.18347065    -0.79700
O35         O  0.99867558  0.50099049  0.25032086    -1.90200
Cd36       Cd  0.47461949  0.45536807  0.27591034     1.59900
O37         O  0.01256752  0.46984568  0.18151487    -0.79600
O38         O  0.48619562  0.46782398  0.31881478    -0.78300
C39         C  0.07929016  0.50057471  0.24500838     0.84300
C40         C  0.99714064  0.64621590  0.25013037     0.83900
O41         O  0.01933276  0.52930583  0.31491178    -0.77200
C42         C  0.41690030  0.50095681  0.25515494     0.84700
O43         O  0.06592630  0.53258677  0.26168830    -0.77300
C44         C  0.49461907  0.50023627  0.16927773     0.84900
C45         C  0.49863549  0.35392354  0.24954345     0.85200
O46         O  0.01600920  0.37779864  0.23245652    -0.79800
O47         O  0.26891242  0.61741106  0.01541330    -0.77300
C48         C  0.25436874  0.49830142  0.07999561     0.83800
O49         O  0.32004781  0.46699848  0.47870225    -0.78400
O50         O  0.23579127  0.37552031  0.01816108    -0.79900
O51         O  0.18263626  0.53008035  0.48638664    -0.79700
O52         O  0.23304672  0.62053553  0.48335770    -0.78300
Zn53       Zn  0.27729968  0.54189218  0.02229828     1.55700
O54         O  0.18386691  0.46590960  0.01948953    -0.79700
Cd55       Cd  0.22549172  0.54312585  0.47684330     1.59700
Cd56       Cd  0.27673471  0.45221171  0.47450437     1.59600
O57         O  0.23179448  0.52709481  0.43302841    -0.79700
O58         O  0.25211525  0.49806056  0.99998109    -1.90200
Cd59       Cd  0.22744302  0.45287384  0.02518144     1.59900
O60         O  0.26595944  0.46532048  0.43129108    -0.79600
O61         O  0.23656015  0.46816548  0.06827148    -0.78300
C62         C  0.33288968  0.49894106  0.99507715     0.84300
C63         C  0.25117389  0.64303598  0.99963657     0.83900
O64         O  0.27095703  0.52745188  0.06516624    -0.77200
C65         C  0.17008291  0.49802743  0.50344076     0.84700
O66         O  0.31932734  0.52927647  0.01263147    -0.77300
C67         C  0.24810148  0.49579652  0.41894967     0.89300
C68         C  0.25341991  0.35120339  0.50124493     0.85200
O69         O  0.27048607  0.37483470  0.48365458    -0.79800
O70         O  0.26465956  0.61789547  0.26741923    -0.77300
C71         C  0.24500147  0.49678280  0.32996474     0.83800
O72         O  0.31797576  0.46505307  0.23643949    -0.78400
O73         O  0.22995112  0.37595070  0.26578250    -0.79900
O74         O  0.18076532  0.53097682  0.22960065    -0.79700
O75         O  0.23087666  0.62191655  0.23304290    -0.78300
Zn76       Zn  0.27198528  0.54217523  0.27464451     1.55700
O77         O  0.17901998  0.46802572  0.26349232    -0.79700
Cd78       Cd  0.22429742  0.54461026  0.22468606     1.59700
Cd79       Cd  0.27521143  0.45284966  0.22703513     1.59600
O80         O  0.23553245  0.53056335  0.18152127    -0.79700
O81         O  0.24856747  0.49882127  0.25008752    -1.90200
Cd82       Cd  0.22178319  0.45353006  0.27280423     1.59900
O83         O  0.26956659  0.46854577  0.18307620    -0.79600
O84         O  0.22792357  0.46715544  0.31673727    -0.78300
C85         C  0.32945371  0.49740493  0.25364231     0.84300
C86         C  0.24799091  0.64396600  0.25067309     0.83900
O87         O  0.26232264  0.52660575  0.31660497    -0.77200
C88         C  0.16675358  0.49967734  0.24589054     0.84700
O89         O  0.31455102  0.52897938  0.26916644    -0.77300
C90         C  0.25340711  0.49985731  0.16906888     0.84900
C91         C  0.24861265  0.35179058  0.25000510     0.85200
O92         O  0.26707477  0.37560984  0.23415318    -0.79800
N93         N  0.49872401  0.94749703  0.03338237    -0.35400
N94         N  0.50082131  0.94771561  0.46668158    -0.55900
N95         N  0.49961385  0.05759596  0.46667753    -0.35400
N96         N  0.50125275  0.05731246  0.03342049    -0.55900
C97         C  0.50544444  0.89777358  0.02723276     0.28200
C98         C  0.50498309  0.95577066  0.06249282     0.28200
C99         C  0.50565777  0.04878827  0.43735442     0.28200
C100        C  0.50646925  0.10692435  0.47258935     0.28200
C101        C  0.49505352  0.89774657  0.47247716     0.36800
C102        C  0.49541124  0.95567417  0.43733708     0.36800
C103        C  0.49567855  0.04968143  0.06291799     0.36800
C104        C  0.49598465  0.10776983  0.02772826     0.36800
C105        C  0.51608788  0.87417508  0.05273742    -0.20700
C106        C  0.51564751  0.91064803  0.07495088    -0.20700
C107        C  0.51641276  0.09321403  0.42451442    -0.20700
C108        C  0.51706243  0.12977061  0.44669566    -0.20700
C109        C  0.48590205  0.87398851  0.44668475    -0.21700
C110        C  0.48631546  0.91055717  0.42446770    -0.21700
C111        C  0.48698839  0.09551921  0.07601497    -0.21700
C112        C  0.48698164  0.13217954  0.05378493    -0.21700
C113        C  0.50021710  0.87208725  0.49995647    -0.17100
C114        C  0.50002382  0.00237554  0.07826261    -0.17100
C115        C  0.50125571  0.13303959  0.50000794    -0.17100
C116        C  0.50029598  0.00240439  0.42181403    -0.17100
H117        H  0.52324108  0.83455206  0.05521696     0.15900
H118        H  0.52252566  0.90463427  0.09762596     0.15900
H119        H  0.52312027  0.09876255  0.40159664     0.15900
H120        H  0.52424516  0.16899046  0.44392499     0.15900
H121        H  0.47979911  0.83422548  0.44401436     0.14100
H122        H  0.48056610  0.90456734  0.40152525     0.14100
H123        H  0.48120902  0.10190925  0.09910197     0.14100
H124        H  0.48119077  0.17239959  0.05661746     0.14100
H125        H  0.48750740  0.97230409  0.01931546     0.27400
H126        H  0.48835152  0.03361711  0.48113836     0.27400
N127        N  0.00102918  0.94522500  0.28358405    -0.35400
N128        N  0.99957148  0.05539655  0.28346819    -0.55900
N129        N  0.00214054  0.05509282  0.21658241    -0.35400
N130        N  0.99934245  0.94510649  0.21668738    -0.55900
C131        C  0.99596717  0.95382878  0.31313998     0.28200
C132        C  0.99490356  0.89539527  0.27802326     0.28200
C133        C  0.99616444  0.10527114  0.22236372     0.28200
C134        C  0.99691288  0.04703789  0.18719034     0.28200
C135        C  0.00400461  0.04806891  0.31305594     0.36800
C136        C  0.00406333  0.10586778  0.27782814     0.36800
C137        C  0.00266794  0.89408645  0.22216554     0.36800
C138        C  0.00348634  0.95205134  0.18689206     0.36800
C139        C  0.98683827  0.90865344  0.32647125    -0.20700
C140        C  0.98605152  0.87196110  0.30442655    -0.20700
C141        C  0.98732265  0.12942351  0.19629593    -0.20700
C142        C  0.98795819  0.09286650  0.17419351    -0.20700
C143        C  0.01102586  0.09418272  0.32625824    -0.21700
C144        C  0.01121858  0.13066508  0.30401228    -0.21700
C145        C  0.00880577  0.86857977  0.19561513    -0.21700
C146        C  0.00912615  0.90514822  0.17337050    -0.21700
C147        C  0.00033185  0.00084794  0.32850693    -0.17100
C148        C  0.99858255  0.86939815  0.25029118    -0.17100
C149        C  0.00064792  0.99982663  0.17162119    -0.17100
C150        C  0.00002313  0.13092022  0.24994879    -0.17100
H151        H  0.98118332  0.90269482  0.34962888     0.15900
H152        H  0.97975095  0.83232043  0.30759442     0.15900
H153        H  0.98109246  0.16944160  0.19339185     0.15900
H154        H  0.98217723  0.09929614  0.15123673     0.15900
H155        H  0.01548719  0.10093340  0.34946922     0.14100
H156        H  0.01594175  0.17102130  0.30690237     0.14100
H157        H  0.01247573  0.82769795  0.19244602     0.14100
H158        H  0.01292663  0.89792131  0.14994155     0.14100
H159        H  0.01096010  0.96993865  0.26855809     0.27400
H160        H  0.01201406  0.02963306  0.23126338     0.27400
N161        N  0.25212597  0.94267886  0.46883665    -0.35400
N162        N  0.25379338  0.94146487  0.03557448    -0.55900
N163        N  0.25183753  0.05164911  0.03560175    -0.35400
N164        N  0.25365855  0.05271469  0.46881502    -0.55900
C165        C  0.25824957  0.89253106  0.47453373     0.28200
C166        C  0.25785042  0.95152344  0.43942999     0.28200
C167        C  0.25802721  0.04244115  0.06472801     0.28200
C168        C  0.25866707  0.10111022  0.02946143     0.28200
C169        C  0.24892178  0.89116628  0.03000677     0.36800
C170        C  0.24891774  0.94874725  0.06521886     0.36800
C171        C  0.24810159  0.04546503  0.43949370     0.36800
C172        C  0.24781481  0.10282661  0.47473823     0.36800
C173        C  0.26795120  0.86916452  0.44837939    -0.20700
C174        C  0.26758458  0.90625640  0.42628668    -0.20700
C175        C  0.26877784  0.08672176  0.07724455    -0.20700
C176        C  0.26942552  0.12352654  0.05500522    -0.20700
C177        C  0.24100038  0.86646161  0.05633962    -0.21700
C178        C  0.24119320  0.90277571  0.07858440    -0.21700
C179        C  0.23877421  0.09119924  0.42669432    -0.21700
C180        C  0.23832951  0.12738356  0.44901837    -0.21700
C181        C  0.25330386  0.86628238  0.00203793    -0.17100
C182        C  0.25296009  0.99866351  0.42396282    -0.17100
C183        C  0.25330997  0.12774872  0.00221911    -0.17100
C184        C  0.25305373  0.99576908  0.08049227    -0.17100
H185        H  0.27433303  0.82924563  0.44538035     0.15900
H186        H  0.27357101  0.90042021  0.40314157     0.15900
H187        H  0.27547082  0.09198128  0.10002769     0.15900
H188        H  0.27669077  0.16265823  0.05753310     0.15900
H189        H  0.23580939  0.82625954  0.05935360     0.14100
H190        H  0.23630785  0.89605816  0.10191740     0.14100
H191        H  0.23294470  0.09779667  0.40370291     0.14100
H192        H  0.23204282  0.16743703  0.44644613     0.14100
H193        H  0.24153576  0.96751338  0.48357318     0.27400
H194        H  0.24053816  0.02772353  0.02150476     0.27400
N195        N  0.25489687  0.94307411  0.28598030    -0.35400
N196        N  0.25285430  0.05327128  0.28546606    -0.55900
N197        N  0.25409278  0.05242181  0.21855568    -0.35400
N198        N  0.25260021  0.94250553  0.21915865    -0.55900
C199        C  0.24979140  0.95205905  0.31547702     0.28200
C200        C  0.24842252  0.89333661  0.28055489     0.28200
C201        C  0.24706745  0.10216468  0.22439867     0.28200
C202        C  0.24830638  0.04357214  0.18935576     0.28200
C203        C  0.25807068  0.04618850  0.31494362     0.36800
C204        C  0.25701426  0.10374276  0.27948291     0.36800
C205        C  0.25705010  0.89184977  0.22492811     0.36800
C206        C  0.25740229  0.94940569  0.18946094     0.36800
C207        C  0.24035916  0.90720927  0.32898623    -0.20700
C208        C  0.23929146  0.87037613  0.30701359    -0.20700
C209        C  0.23676415  0.12520308  0.19854918    -0.20700
C210        C  0.23774601  0.08842287  0.17647551    -0.20700
C211        C  0.26546929  0.09244103  0.32777461    -0.21700
C212        C  0.26497814  0.12877081  0.30535249    -0.21700
C213        C  0.26474581  0.86659264  0.19869871    -0.21700
C214        C  0.26480120  0.90291106  0.17630038    -0.21700
C215        C  0.25434305  0.99914981  0.33064550    -0.17100
C216        C  0.25217988  0.86709368  0.25289268    -0.17100
C217        C  0.25327885  0.99655190  0.17390019    -0.17100
C218        C  0.25161257  0.12848673  0.25170137    -0.17100
H219        H  0.23474333  0.90158810  0.35224933     0.15900
H220        H  0.23269798  0.83092955  0.31029495     0.15900
H221        H  0.22951607  0.16470752  0.19573798     0.15900
H222        H  0.23134888  0.09405834  0.15357213     0.15900
H223        H  0.27046694  0.09936286  0.35089397     0.14100
H224        H  0.26963143  0.16921742  0.30795596     0.14100
H225        H  0.26957117  0.82599166  0.19585442     0.14100
H226        H  0.26951331  0.89581146  0.15298030     0.14100
H227        H  0.26499546  0.96754532  0.27090783     0.27400
H228        H  0.26513742  0.02796586  0.23293842     0.27400
C229        C  0.25351332  0.99915149  0.39096914    -0.12000
C230        C  0.25399316  0.99939698  0.36364801    -0.13600
C231        C  0.25309325  0.99599702  0.11352379    -0.12000
C232        C  0.25310484  0.99637767  0.14086567    -0.13600
C233        C  0.50039485  0.00223592  0.38882329    -0.12000
C234        C  0.00029707  0.00112409  0.36151446    -0.13600
C235        C  0.50020688  0.00159881  0.11126975    -0.12000
C236        C  0.00041222  0.00049645  0.13859499    -0.13600
C237        C  0.22917697  0.26701573  0.26770655    -0.12100
C238        C  0.24900867  0.29465247  0.25019484     0.10000
C239        C  0.26946393  0.26711099  0.23302475    -0.12100
C240        C  0.27023644  0.21328833  0.23354309    -0.12100
C241        C  0.25050073  0.18585395  0.25108945     0.10000
C242        C  0.22985963  0.21312167  0.26804939    -0.12100
H243        H  0.21314844  0.28699125  0.28119260     0.14000
H244        H  0.28502401  0.28712271  0.21927513     0.14000
H245        H  0.28631891  0.19290709  0.22031734     0.14000
H246        H  0.21437487  0.19258591  0.28164036     0.14000
C247        C  0.22894378  0.73098887  0.23534760    -0.12100
C248        C  0.24865292  0.70104605  0.25170592     0.10000
C249        C  0.26915641  0.72621623  0.26896146    -0.12100
C250        C  0.27017267  0.78001718  0.26950710    -0.12100
C251        C  0.25053996  0.80976472  0.25307495     0.10000
C252        C  0.22975500  0.78478835  0.23621248    -0.12100
H253        H  0.21285723  0.71288186  0.22188058     0.14000
H254        H  0.28465638  0.70435186  0.28181534     0.14000
H255        H  0.28642037  0.79853976  0.28258220     0.14000
H256        H  0.21435709  0.80707461  0.22344654     0.14000
C257        C  0.23572661  0.26708164  0.02163372    -0.12100
C258        C  0.25390061  0.29408130  0.50195132     0.10000
C259        C  0.27226315  0.26591613  0.48273991    -0.12100
C260        C  0.27235184  0.21205798  0.48312507    -0.12100
C261        C  0.25382583  0.18520673  0.50242413     0.10000
C262        C  0.23558485  0.21323458  0.02173661    -0.12100
H263        H  0.22139200  0.28753348  0.03680773     0.14000
H264        H  0.28653020  0.28545373  0.46731794     0.14000
H265        H  0.28673460  0.19120995  0.46817005     0.14000
H266        H  0.22111109  0.19332895  0.03679445     0.14000
C267        C  0.27221895  0.72585087  0.51720738    -0.12100
C268        C  0.25170550  0.70013673  0.00024649     0.10000
C269        C  0.23178017  0.72956517  0.98385058    -0.12100
C270        C  0.23230162  0.78339900  0.98451272    -0.12100
C271        C  0.25283450  0.80889986  0.00141865     0.10000
C272        C  0.27286252  0.77967751  0.51764998    -0.12100
H273        H  0.28788585  0.70440486  0.53007334     0.14000
H274        H  0.21570769  0.71103476  0.97056057     0.14000
H275        H  0.21665880  0.80529525  0.97184621     0.14000
H276        H  0.28895462  0.79864701  0.53071533     0.14000
C277        C  0.24634191  0.49524140  0.38771081    -0.12000
C278        C  0.24517515  0.49590545  0.36127292    -0.13600
C279        C  0.25551897  0.49969574  0.11127444    -0.12000
C280        C  0.25516509  0.50016764  0.13776528    -0.13600
C281        C  0.02003946  0.26919529  0.23340907    -0.12100
C282        C  0.49867922  0.29685887  0.24929045     0.10000
C283        C  0.47754883  0.26943456  0.26514114    -0.12100
C284        C  0.47784522  0.21558962  0.26516715    -0.12100
C285        C  0.99941526  0.18820386  0.24960389     0.10000
C286        C  0.02046855  0.21537294  0.23369535    -0.12100
H287        H  0.03662571  0.28911323  0.22099678     0.14000
H288        H  0.46074253  0.28955684  0.27749154     0.14000
H289        H  0.46134295  0.19517064  0.27743725     0.14000
H290        H  0.03726523  0.19479298  0.22156715     0.14000
C291        C  0.01898493  0.78363024  0.26583072    -0.12100
C292        C  0.99780678  0.81207548  0.25075603     0.10000
C293        C  0.47611387  0.78588441  0.23591752    -0.12100
C294        C  0.47589345  0.73203633  0.23569881    -0.12100
C295        C  0.99719121  0.70333338  0.25063640     0.10000
C296        C  0.01863288  0.72978135  0.26587861    -0.12100
H297        H  0.03587503  0.80323023  0.27741910     0.14000
H298        H  0.45951056  0.80723924  0.22429546     0.14000
H299        H  0.45902138  0.71291473  0.22383355     0.14000
H300        H  0.03532746  0.70888922  0.27761374     0.14000
C301        C  0.38607911  0.49992028  0.25603515    -0.12000
C302        C  0.36021157  0.49865551  0.25540058    -0.13600
C303        C  0.11009540  0.50079756  0.24427716    -0.12000
C304        C  0.13597721  0.50035375  0.24458366    -0.13600
C305        C  0.02077821  0.27098781  0.51764999    -0.12100
C306        C  0.50174019  0.29928444  0.49955465     0.10000
C307        C  0.48274082  0.27241924  0.98136086    -0.12100
C308        C  0.48258069  0.21853686  0.98154093    -0.12100
C309        C  0.50159080  0.19045195  0.49966504     0.10000
C310        C  0.02082523  0.21716133  0.51754348    -0.12100
H311        H  0.03574113  0.29040988  0.53187730     0.14000
H312        H  0.46784302  0.29300007  0.96713595     0.14000
H313        H  0.46755785  0.19863812  0.96759398     0.14000
H314        H  0.03578660  0.19622753  0.53154367     0.14000
C315        C  0.48200495  0.73360251  0.01877229    -0.12100
C316        C  0.00112148  0.70596019  0.00006483     0.10000
C317        C  0.02009577  0.73344884  0.48149654    -0.12100
C318        C  0.01994678  0.78727970  0.48164144    -0.12100
C319        C  0.50064795  0.81472336  0.00011609     0.10000
C320        C  0.48170286  0.78744545  0.01869563    -0.12100
H321        H  0.46718020  0.71365859  0.03341946     0.14000
H322        H  0.03505496  0.71339510  0.46679563     0.14000
H323        H  0.03482137  0.80764743  0.46723760     0.14000
H324        H  0.46664198  0.80794065  0.03309710     0.14000
C325        C  0.38959335  0.50156656  0.49382530    -0.12000
C326        C  0.36370380  0.50052167  0.99393112    -0.13600
C327        C  0.13926270  0.49804590  0.50441753    -0.12000
C328        C  0.11336973  0.49865687  0.00440606    -0.13600
C329        C  0.00674464  0.49873631  0.36130246    -0.12000
C330        C  0.50734541  0.49999175  0.38778519    -0.13600
C331        C  0.49332171  0.50041195  0.13802264    -0.12000
C332        C  0.99351835  0.50092347  0.11154823    -0.13600
O333        O  0.48885146  0.47158266  0.93245767    -0.77300
C334        C  0.50176645  0.35641007  0.99979195     0.83800
O335        O  0.43183010  0.53523623  0.51234440    -0.78400
O336        O  0.01365912  0.47106316  0.56802077    -0.79900
O337        O  0.07036830  0.53167455  0.98582677    -0.79700
O338        O  0.02217817  0.53297836  0.93241251    -0.78300
Zn339      Zn  0.47798961  0.45747998  0.97443815     1.55700
O340        O  0.06851027  0.46906120  0.51992004    -0.79700
Cd341      Cd  0.02771377  0.54705390  0.97648652     1.59700
Cd342      Cd  0.47430374  0.54778749  0.52205799     1.59600
O343        O  0.01978378  0.62467473  0.98398639    -0.79700
O344        O  0.50093444  0.50165907  0.99910730    -1.90200
Cd345      Cd  0.02495582  0.45654485  0.52503780     1.59900
O346        O  0.48245588  0.62507088  0.51535521    -0.79600
O347        O  0.01828197  0.37941016  0.51757575    -0.78300
C348        C  0.42036593  0.50282540  0.99519033     0.84300
C349        C  0.50614118  0.50155471  0.91912921     0.83900
O350        O  0.48536024  0.38156416  0.98229913    -0.77200
C351        C  0.08258076  0.49990443  0.50339952     0.84700
O352        O  0.43524636  0.47118379  0.97960678    -0.77300
C353        C  0.00114785  0.64885543  0.49980571     0.84900
C354        C  0.99550405  0.50139406  0.58028788     0.85200
O355        O  0.47928760  0.53233087  0.56611237    -0.79800
O356        O  0.01525830  0.62098289  0.76567993    -0.77300
C357        C  0.00409214  0.49838018  0.83009354     0.83800
O358        O  0.06626738  0.46786146  0.72933521    -0.78400
O359        O  0.48133820  0.37798152  0.76694071    -0.79900
O360        O  0.42914222  0.53202791  0.73724894    -0.79700
O361        O  0.47901374  0.62330737  0.73406199    -0.78300
Zn362      Zn  0.02412481  0.54524340  0.77204974     1.55700
O363        O  0.43097432  0.47013123  0.77178521    -0.79700
Cd364      Cd  0.47180748  0.54591444  0.72742721     1.59700
Cd365      Cd  0.02291634  0.45511483  0.72456842     1.59600
O366        O  0.47800442  0.53085089  0.68347081    -0.79700
O367        O  0.99867542  0.50099003  0.75032099    -1.90200
Cd368      Cd  0.47461937  0.45536750  0.77591042     1.59900
O369        O  0.01256741  0.46984519  0.68151509    -0.79600
O370        O  0.48619563  0.46782316  0.81881481    -0.78300
C371        C  0.07929002  0.50057475  0.74500839     0.84300
C372        C  0.99714048  0.64621547  0.75013053     0.83900
O373        O  0.01933267  0.52930508  0.81491179    -0.77200
C374        C  0.41690020  0.50095650  0.75515530     0.84700
O375        O  0.06592612  0.53258676  0.76168830    -0.77300
C376        C  0.49461895  0.50023568  0.66927793     0.84900
C377        C  0.49863534  0.35392303  0.74954352     0.85200
O378        O  0.01600915  0.37779820  0.73245674    -0.79800
O379        O  0.26891217  0.61741186  0.51541312    -0.77300
C380        C  0.25436923  0.49830243  0.57999565     0.83800
O381        O  0.32004703  0.46699764  0.97870183    -0.78400
O382        O  0.23579243  0.37552057  0.51816108    -0.79900
O383        O  0.18263585  0.53008194  0.98638695    -0.79700
O384        O  0.23304720  0.62053576  0.98335763    -0.78300
Zn385      Zn  0.27729997  0.54189314  0.52229817     1.55700
O386        O  0.18386770  0.46590902  0.51948985    -0.79700
Cd387      Cd  0.22549141  0.54312635  0.97684350     1.59700
Cd388      Cd  0.27673384  0.45221122  0.97450439     1.59600
O389        O  0.23179390  0.52709521  0.93302863    -0.79700
O390        O  0.25211585  0.49806082  0.49998101    -1.90200
Cd391      Cd  0.22744389  0.45287391  0.52518154     1.59900
O392        O  0.26595831  0.46531991  0.93129122    -0.79600
O393        O  0.23656099  0.46816573  0.56827158    -0.78300
C394        C  0.33289030  0.49894216  0.49507756     0.84300
C395        C  0.25117324  0.64303629  0.49963660     0.83900
O396        O  0.27095722  0.52745329  0.56516621    -0.77200
C397        C  0.17008231  0.49802872  0.00344072     0.84700
O398        O  0.31932777  0.52927779  0.51263162    -0.77300
C399        C  0.24810057  0.49579643  0.91894986     0.89300
C400        C  0.25341877  0.35120310  0.00124497     0.85200
O401        O  0.27048500  0.37483437  0.98365469    -0.79800
O402        O  0.26465964  0.61789545  0.76741946    -0.77300
C403        C  0.24500094  0.49678290  0.82996495     0.83800
O404        O  0.31797569  0.46505322  0.73643983    -0.78400
O405        O  0.22995094  0.37595105  0.76578248    -0.79900
O406        O  0.18076526  0.53097712  0.72960051    -0.79700
O407        O  0.23087662  0.62191673  0.73304326    -0.78300
Zn408      Zn  0.27198516  0.54217519  0.77464489     1.55700
O409        O  0.17901979  0.46802620  0.76349227    -0.79700
Cd410      Cd  0.22429741  0.54461057  0.72468620     1.59700
Cd411      Cd  0.27521139  0.45285004  0.72703524     1.59600
O412        O  0.23553269  0.53056424  0.68152141    -0.79700
O413        O  0.24856738  0.49882150  0.75008769    -1.90200
Cd414      Cd  0.22178297  0.45353036  0.77280427     1.59900
O415        O  0.26956675  0.46854655  0.68307628    -0.79600
O416        O  0.22792312  0.46715559  0.81673734    -0.78300
C417        C  0.32945361  0.49740479  0.75364286     0.84300
C418        C  0.24799098  0.64396606  0.75067337     0.83900
O419        O  0.26232222  0.52660581  0.81660531    -0.77200
C420        C  0.16675345  0.49967775  0.74589042     0.84700
O421        O  0.31455090  0.52897907  0.76916708    -0.77300
C422        C  0.25340738  0.49985831  0.66906898     0.84900
C423        C  0.24861248  0.35179096  0.75000506     0.85200
O424        O  0.26707461  0.37561025  0.73415316    -0.79800
N425        N  0.49872516  0.94749685  0.53338255    -0.35400
N426        N  0.50082050  0.94771572  0.96668145    -0.55900
N427        N  0.49961374  0.05759616  0.96667733    -0.35400
N428        N  0.50125304  0.05731219  0.53342073    -0.55900
C429        C  0.50544573  0.89777351  0.52723290     0.28200
C430        C  0.50498424  0.95577051  0.56249298     0.28200
C431        C  0.50565755  0.04878833  0.93735422     0.28200
C432        C  0.50646935  0.10692448  0.97258908     0.28200
C433        C  0.49505260  0.89774670  0.97247695     0.36800
C434        C  0.49541064  0.95567432  0.93733692     0.36800
C435        C  0.49567891  0.04968100  0.56291823     0.36800
C436        C  0.49598441  0.10776937  0.52772849     0.36800
C437        C  0.51608930  0.87417506  0.55273752    -0.20700
C438        C  0.51564886  0.91064798  0.57495100    -0.20700
C439        C  0.51641268  0.09321392  0.92451415    -0.20700
C440        C  0.51706255  0.12977055  0.94669534    -0.20700
C441        C  0.48590129  0.87398871  0.94668446    -0.21700
C442        C  0.48631490  0.91055737  0.92446745    -0.21700
C443        C  0.48698825  0.09551849  0.57601521    -0.21700
C444        C  0.48698111  0.13217881  0.55378515    -0.21700
C445        C  0.50021592  0.87208733  0.99995630    -0.17100
C446        C  0.50002462  0.00237523  0.57826281    -0.17100
C447        C  0.50125598  0.13303987  0.00000764    -0.17100
C448        C  0.50029558  0.00240447  0.92181389    -0.17100
H449        H  0.52324255  0.83455207  0.55521704     0.15900
H450        H  0.52252700  0.90463424  0.59762609     0.15900
H451        H  0.52312016  0.09876230  0.90159635     0.15900
H452        H  0.52424541  0.16899031  0.94392462     0.15900
H453        H  0.47979830  0.83422572  0.94401399     0.14100
H454        H  0.48056568  0.90456759  0.90152496     0.14100
H455        H  0.48120882  0.10190835  0.59910221     0.14100
H456        H  0.48118984  0.17239869  0.55661767     0.14100
H457        H  0.48750835  0.97230377  0.51931563     0.27400
H458        H  0.48835136  0.03361750  0.98113821     0.27400
N459        N  0.00102924  0.94522455  0.78358406    -0.35400
N460        N  0.99957151  0.05539614  0.78346821    -0.55900
N461        N  0.00214080  0.05509239  0.71658252    -0.35400
N462        N  0.99934267  0.94510605  0.71668748    -0.55900
C463        C  0.99596718  0.95382836  0.81313997     0.28200
C464        C  0.99490375  0.89539478  0.77802329     0.28200
C465        C  0.99616435  0.10527054  0.72236390     0.28200
C466        C  0.99691286  0.04703733  0.68719054     0.28200
C467        C  0.00400482  0.04806840  0.81305590     0.36800
C468        C  0.00406374  0.10586723  0.77782813     0.36800
C469        C  0.00266826  0.89408602  0.72216563     0.36800
C470        C  0.00348678  0.95205096  0.68689221     0.36800
C471        C  0.98683839  0.90865295  0.82647126    -0.20700
C472        C  0.98605176  0.87196055  0.80442660    -0.20700
C473        C  0.98732197  0.12942268  0.69629626    -0.20700
C474        C  0.98795754  0.09286568  0.67419383    -0.20700
C475        C  0.01102659  0.09418200  0.82625813    -0.21700
C476        C  0.01121945  0.13066435  0.80401217    -0.21700
C477        C  0.00880636  0.86857943  0.69561525    -0.21700
C478        C  0.00912684  0.90514792  0.67337065    -0.21700
C479        C  0.00033182  0.00084754  0.82850689    -0.17100
C480        C  0.99858278  0.86939767  0.75029123    -0.17100
C481        C  0.00064824  0.99982622  0.67162135    -0.17100
C482        C  0.00002331  0.13091973  0.74994887    -0.17100
H483        H  0.98118347  0.90269431  0.84962889     0.15900
H484        H  0.97975131  0.83231984  0.80759449     0.15900
H485        H  0.98109140  0.16944062  0.69339229     0.15900
H486        H  0.98217620  0.09929511  0.65123715     0.15900
H487        H  0.01548823  0.10093252  0.84946905     0.14100
H488        H  0.01594299  0.17102044  0.80690219     0.14100
H489        H  0.01247645  0.82769763  0.69244616     0.14100
H490        H  0.01292752  0.89792109  0.64994172     0.14100
H491        H  0.01096012  0.96993835  0.76855804     0.27400
H492        H  0.01201483  0.02963279  0.73126337     0.27400
N493        N  0.25212809  0.94267861  0.96883653    -0.35400
N494        N  0.25379127  0.94146538  0.53557463    -0.55900
N495        N  0.25183696  0.05164959  0.53560175    -0.35400
N496        N  0.25365923  0.05271451  0.96881505    -0.55900
C497        C  0.25825222  0.89253099  0.97453350     0.28200
C498        C  0.25785235  0.95152356  0.93942988     0.28200
C499        C  0.25802643  0.04244153  0.56472806     0.28200
C500        C  0.25866691  0.10111050  0.52946140     0.28200
C501        C  0.24891898  0.89116703  0.53000697     0.36800
C502        C  0.24891570  0.94874805  0.56521899     0.36800
C503        C  0.24810212  0.04546467  0.93949379     0.36800
C504        C  0.24781466  0.10282609  0.97473840     0.36800
C505        C  0.26795407  0.86916492  0.94837909    -0.20700
C506        C  0.26758700  0.90625693  0.92628645    -0.20700
C507        C  0.26877734  0.08672191  0.57724461    -0.20700
C508        C  0.26942539  0.12352662  0.55500524    -0.20700
C509        C  0.24099713  0.86646279  0.55633981    -0.21700
C510        C  0.24119042  0.90277692  0.57858456    -0.21700
C511        C  0.23877380  0.09119842  0.92669459    -0.21700
C512        C  0.23832868  0.12738263  0.94901870    -0.21700
C513        C  0.25330103  0.86628281  0.50203826    -0.17100
C514        C  0.25296127  0.99866347  0.92396281    -0.17100
C515        C  0.25331020  0.12774906  0.50221900    -0.17100
C516        C  0.25305248  0.99576963  0.58049236    -0.17100
H517        H  0.27433628  0.82924624  0.94537996     0.15900
H518        H  0.27357339  0.90042107  0.90314131     0.15900
H519        H  0.27547022  0.09198135  0.60002778     0.15900
H520        H  0.27669089  0.16265815  0.55753314     0.15900
H521        H  0.23580563  0.82626094  0.55935380     0.14100
H522        H  0.23630494  0.89605966  0.60191756     0.14100
H523        H  0.23294391  0.09779560  0.90370327     0.14100
H524        H  0.23204126  0.16743578  0.94644661     0.14100
H525        H  0.24153755  0.96751269  0.98357315     0.27400
H526        H  0.24053747  0.02772433  0.52150473     0.27400
N527        N  0.25489732  0.94307430  0.78598040    -0.35400
N528        N  0.25285427  0.05327164  0.78546606    -0.55900
N529        N  0.25409263  0.05242200  0.71855570    -0.35400
N530        N  0.25260035  0.94250556  0.71915879    -0.55900
C531        C  0.24979208  0.95205924  0.81547715     0.28200
C532        C  0.24842325  0.89333661  0.78055513     0.28200
C533        C  0.24706736  0.10216492  0.72439861     0.28200
C534        C  0.24830623  0.04357223  0.68935580     0.28200
C535        C  0.25807074  0.04618896  0.81494361     0.36800
C536        C  0.25701404  0.10374318  0.77948288     0.36800
C537        C  0.25705018  0.89184976  0.72492822     0.36800
C538        C  0.25740200  0.94940564  0.68946101     0.36800
C539        C  0.24036031  0.90720929  0.82898653    -0.20700
C540        C  0.23929264  0.87037603  0.80701397    -0.20700
C541        C  0.23676414  0.12520329  0.69854907    -0.20700
C542        C  0.23774596  0.08842298  0.67647546    -0.20700
C543        C  0.26546916  0.09244161  0.82777457    -0.21700
C544        C  0.26497786  0.12877135  0.80535244    -0.21700
C545        C  0.26474542  0.86659253  0.69869871    -0.21700
C546        C  0.26480056  0.90291092  0.67630036    -0.21700
C547        C  0.25434352  0.99915017  0.83064552    -0.17100
C548        C  0.25218033  0.86709369  0.75289287    -0.17100
C549        C  0.25327850  0.99655188  0.67390026    -0.17100
C550        C  0.25161239  0.12848707  0.75170130    -0.17100
H551        H  0.23474474  0.90158808  0.85224969     0.15900
H552        H  0.23269944  0.83092932  0.81029546     0.15900
H553        H  0.22951611  0.16470773  0.69573780     0.15900
H554        H  0.23134884  0.09405840  0.65357208     0.15900
H555        H  0.27046688  0.09936352  0.85089390     0.14100
H556        H  0.26963106  0.16921800  0.80795588     0.14100
H557        H  0.26957062  0.82599151  0.69585435     0.14100
H558        H  0.26951227  0.89581122  0.65298021     0.14100
H559        H  0.26499553  0.96754570  0.77090779     0.27400
H560        H  0.26513721  0.02796598  0.73293852     0.27400
C561        C  0.25351428  0.99915166  0.89096914    -0.12000
C562        C  0.25399390  0.99939734  0.86364802    -0.13600
C563        C  0.25309232  0.99599738  0.61352388    -0.12000
C564        C  0.25310420  0.99637768  0.64086576    -0.13600
C565        C  0.50039455  0.00223588  0.88882319    -0.12000
C566        C  0.00029690  0.00112383  0.86151438    -0.13600
C567        C  0.50020758  0.00159844  0.61126992    -0.12000
C568        C  0.00041275  0.00049609  0.63859517    -0.13600
C569        C  0.22917683  0.26701611  0.76770653    -0.12100
C570        C  0.24900847  0.29465285  0.75019476     0.10000
C571        C  0.26946365  0.26711138  0.73302456    -0.12100
C572        C  0.27023615  0.21328872  0.73354288    -0.12100
C573        C  0.25050051  0.18585432  0.75108933     0.10000
C574        C  0.22985948  0.21312205  0.76804935    -0.12100
H575        H  0.21314838  0.28699164  0.78119267     0.14000
H576        H  0.28502368  0.28712311  0.71927488     0.14000
H577        H  0.28631857  0.19290748  0.72031706     0.14000
H578        H  0.21437476  0.19258630  0.78164039     0.14000
C579        C  0.22894377  0.73098900  0.73534816    -0.12100
C580        C  0.24865311  0.70104608  0.75170616     0.10000
C581        C  0.26915693  0.72621615  0.76896134    -0.12100
C582        C  0.27017329  0.78001709  0.76950696    -0.12100
C583        C  0.25054035  0.80976473  0.75307516     0.10000
C584        C  0.22975508  0.78478847  0.73621304    -0.12100
H585        H  0.21285698  0.71288208  0.72188141     0.14000
H586        H  0.28465708  0.70435169  0.78181494     0.14000
H587        H  0.28642123  0.79853958  0.78258179     0.14000
H588        H  0.21435700  0.80707481  0.72344736     0.14000
C589        C  0.23572733  0.26708214  0.52163344    -0.12100
C590        C  0.25389952  0.29408101  0.00195132     0.10000
C591        C  0.27226187  0.26591606  0.98273962    -0.12100
C592        C  0.27235080  0.21205792  0.98312480    -0.12100
C593        C  0.25382522  0.18520642  0.00242420     0.10000
C594        C  0.23558532  0.21323512  0.52173629    -0.12100
H595        H  0.22139256  0.28753412  0.53680723     0.14000
H596        H  0.28652860  0.28545381  0.96731741     0.14000
H597        H  0.28673343  0.19121010  0.96816956     0.14000
H598        H  0.22111124  0.19332968  0.53679389     0.14000
C599        C  0.27222053  0.72584989  0.01720711    -0.12100
C600        C  0.25170410  0.70013709  0.50024683     0.10000
C601        C  0.23177817  0.72956495  0.48385136    -0.12100
C602        C  0.23229902  0.78339883  0.48451364    -0.12100
C603        C  0.25283187  0.80890028  0.50141929     0.10000
C604        C  0.27286474  0.77967648  0.01764953    -0.12100
H605        H  0.28788703  0.70440342  0.03007334     0.14000
H606        H  0.21570574  0.71103407  0.47056150     0.14000
H607        H  0.21665586  0.80529464  0.47184733     0.14000
H608        H  0.28895690  0.79864549  0.03071504     0.14000
C609        C  0.24634097  0.49524137  0.88771101    -0.12000
C610        C  0.24517438  0.49590551  0.86127312    -0.13600
C611        C  0.25551939  0.49969708  0.61127451    -0.12000
C612        C  0.25516548  0.50016898  0.63776537    -0.13600
C613        C  0.02003918  0.26919488  0.73340878    -0.12100
C614        C  0.49867911  0.29685835  0.74929048     0.10000
C615        C  0.47754904  0.26943392  0.76514157    -0.12100
C616        C  0.47784553  0.21558899  0.76516762    -0.12100
C617        C  0.99941537  0.18820336  0.74960398     0.10000
C618        C  0.02046836  0.21537253  0.73369506    -0.12100
H619        H  0.03662519  0.28911290  0.72099619     0.14000
H620        H  0.46074292  0.28955611  0.77749229     0.14000
H621        H  0.46134353  0.19516992  0.77743805     0.14000
H622        H  0.03726487  0.19479266  0.72156655     0.14000
C623        C  0.01898501  0.78362968  0.76583081    -0.12100
C624        C  0.99780696  0.81207501  0.75075603     0.10000
C625        C  0.47611406  0.78588406  0.73591746    -0.12100
C626        C  0.47589350  0.73203598  0.73569882    -0.12100
C627        C  0.99719113  0.70333294  0.75063653     0.10000
C628        C  0.01863283  0.72978080  0.76587877    -0.12100
H629        H  0.03587512  0.80322958  0.77741922     0.14000
H630        H  0.45951083  0.80723897  0.72429533     0.14000
H631        H  0.45902142  0.71291447  0.72383354     0.14000
H632        H  0.03532733  0.70888860  0.77761396     0.14000
C633        C  0.38607901  0.49992008  0.75603565    -0.12000
C634        C  0.36021146  0.49865531  0.75540117    -0.13600
C635        C  0.11009526  0.50079789  0.74427705    -0.12000
C636        C  0.13597708  0.50035421  0.74458349    -0.13600
C637        C  0.02077827  0.27098834  0.01764936    -0.12100
C638        C  0.50173987  0.29928474  0.99955434     0.10000
C639        C  0.48274118  0.27241915  0.48136101    -0.12100
C640        C  0.48258077  0.21853679  0.48154117    -0.12100
C641        C  0.50159102  0.19045224  0.99966459     0.10000
C642        C  0.02082556  0.21716186  0.01754278    -0.12100
H643        H  0.03574126  0.29041059  0.03187649     0.14000
H644        H  0.46784364  0.29300014  0.46713590     0.14000
H645        H  0.46755799  0.19863823  0.46759406     0.14000
H646        H  0.03578718  0.19622824  0.03154277     0.14000
C647        C  0.48200626  0.73360244  0.51877244    -0.12100
C648        C  0.00112303  0.70596016  0.50006522     0.10000
C649        C  0.02009406  0.73344882  0.98149595    -0.12100
C650        C  0.01994526  0.78727965  0.98164097    -0.12100
C651        C  0.50064923  0.81472332  0.50011629     0.10000
C652        C  0.48170405  0.78744538  0.51869571    -0.12100
H653        H  0.46718138  0.71365851  0.53341946     0.14000
H654        H  0.03505305  0.71339504  0.96679483     0.14000
H655        H  0.03481976  0.80764730  0.96723700     0.14000
H656        H  0.46664300  0.80794054  0.53309700     0.14000
C657        C  0.38959271  0.50156589  0.99382455    -0.12000
C658        C  0.36370443  0.50052269  0.49393181    -0.13600
C659        C  0.13926208  0.49804752  0.00441738    -0.12000
C660        C  0.11337035  0.49865534  0.50440626    -0.13600
C661        C  0.00674485  0.49873518  0.86130241    -0.12000
C662        C  0.50734567  0.49999080  0.88778512    -0.13600
C663        C  0.49332167  0.50041140  0.63802283    -0.12000
C664        C  0.99351849  0.50092306  0.61154843    -0.13600
O665        O  0.98885157  0.47158310  0.43245786    -0.77300
C666        C  0.00176697  0.35640979  0.49979221     0.83800
O667        O  0.93182926  0.53523543  0.01234416    -0.78400
O668        O  0.51365888  0.47106375  0.06802048    -0.79900
O669        O  0.57036905  0.53167292  0.48582657    -0.79700
O670        O  0.52217835  0.53297868  0.43241260    -0.78300
Zn671      Zn  0.97799013  0.45747992  0.47443848     1.55700
O672        O  0.56850976  0.46906164  0.01991947    -0.79700
Cd673      Cd  0.52771457  0.54705348  0.47648664     1.59700
Cd674      Cd  0.97430283  0.54778723  0.02205784     1.59600
O675        O  0.51978527  0.62467453  0.48398684    -0.79700
O676        O  0.00093515  0.50165890  0.49910752    -1.90200
Cd677      Cd  0.52495532  0.45654523  0.02503745     1.59900
O678        O  0.98245466  0.62507079  0.01535511    -0.79600
O679        O  0.51828145  0.37941056  0.01757544    -0.78300
C680        C  0.92036659  0.50282588  0.49519094     0.84300
C681        C  0.00614117  0.50155529  0.41912933     0.83900
O682        O  0.98536086  0.38156401  0.48229935    -0.77200
C683        C  0.58258013  0.49990562  0.00339932     0.84700
O684        O  0.93524687  0.47118371  0.47960761    -0.77300
C685        C  0.50114639  0.64885547  0.99980539     0.84900
C686        C  0.49550367  0.50139430  0.08028766     0.85200
O687        O  0.97928685  0.53233062  0.06611222    -0.79800
O688        O  0.51525857  0.62098336  0.26567964    -0.77300
C689        C  0.50409209  0.49838114  0.33009354     0.83800
O690        O  0.56626748  0.46786165  0.22933510    -0.78400
O691        O  0.98133841  0.37798207  0.26694069    -0.79900
O692        O  0.92914237  0.53202824  0.23724862    -0.79700
O693        O  0.97901381  0.62330777  0.23406195    -0.78300
Zn694      Zn  0.52412500  0.54524383  0.27204963     1.55700
O695        O  0.93097442  0.47013165  0.27178494    -0.79700
Cd696      Cd  0.97180763  0.54591488  0.22742706     1.59700
Cd697      Cd  0.52291643  0.45511528  0.22456822     1.59600
O698        O  0.97800457  0.53085145  0.18347065    -0.79700
O699        O  0.49867557  0.50099049  0.25032086    -1.90200
Cd700      Cd  0.97461949  0.45536806  0.27591033     1.59900
O701        O  0.51256754  0.46984576  0.18151487    -0.79600
O702        O  0.98619563  0.46782396  0.31881478    -0.78300
C703        C  0.57929016  0.50057472  0.24500838     0.84300
C704        C  0.49714064  0.64621591  0.25013037     0.83900
O705        O  0.51933275  0.52930584  0.31491178    -0.77200
C706        C  0.91690032  0.50095682  0.25515494     0.84700
O707        O  0.56592630  0.53258678  0.26168830    -0.77300
C708        C  0.99461907  0.50023622  0.16927773     0.84900
C709        C  0.99863546  0.35392353  0.24954341     0.85200
O710        O  0.51600920  0.37779866  0.23245654    -0.79800
O711        O  0.76891241  0.61741106  0.01541331    -0.77300
C712        C  0.75436873  0.49830143  0.07999562     0.83800
O713        O  0.82004781  0.46699850  0.47870225    -0.78400
O714        O  0.73579126  0.37552029  0.01816111    -0.79900
O715        O  0.68263625  0.53008030  0.48638663    -0.79700
O716        O  0.73304671  0.62053552  0.48335771    -0.78300
Zn717      Zn  0.77729967  0.54189218  0.02229829     1.55700
O718        O  0.68386691  0.46590956  0.01948953    -0.79700
Cd719      Cd  0.72549172  0.54312584  0.47684330     1.59700
Cd720      Cd  0.77673471  0.45221172  0.47450438     1.59600
O721        O  0.73179447  0.52709481  0.43302842    -0.79700
O722        O  0.75211524  0.49806055  0.99998111    -1.90200
Cd723      Cd  0.72744301  0.45287382  0.02518145     1.59900
O724        O  0.76595943  0.46532048  0.43129108    -0.79600
O725        O  0.73656013  0.46816547  0.06827149    -0.78300
C726        C  0.83288968  0.49894103  0.99507721     0.84300
C727        C  0.75117388  0.64303598  0.99963657     0.83900
O728        O  0.77095701  0.52745188  0.06516625    -0.77200
C729        C  0.67008290  0.49802737  0.50344074     0.84700
O730        O  0.81932734  0.52927647  0.01263150    -0.77300
C731        C  0.74810147  0.49579652  0.41894967     0.89300
C732        C  0.75341990  0.35120339  0.50124493     0.85200
O733        O  0.77048606  0.37483470  0.48365457    -0.79800
O734        O  0.76465955  0.61789547  0.26741924    -0.77300
C735        C  0.74500146  0.49678278  0.32996474     0.83800
O736        O  0.81797578  0.46505311  0.23643949    -0.78400
O737        O  0.72995110  0.37595071  0.26578244    -0.79900
O738        O  0.68076532  0.53097683  0.22960065    -0.79700
O739        O  0.73087667  0.62191654  0.23304290    -0.78300
Zn740      Zn  0.77198528  0.54217522  0.27464453     1.55700
O741        O  0.67901997  0.46802574  0.26349232    -0.79700
Cd742      Cd  0.72429742  0.54461025  0.22468606     1.59700
Cd743      Cd  0.77521146  0.45284967  0.22703514     1.59600
O744        O  0.73553245  0.53056333  0.18152128    -0.79700
O745        O  0.74856748  0.49882128  0.25008752    -1.90200
Cd746      Cd  0.72178319  0.45353006  0.27280422     1.59900
O747        O  0.76956661  0.46854579  0.18307620    -0.79600
O748        O  0.72792357  0.46715540  0.31673726    -0.78300
C749        C  0.82945373  0.49740495  0.25364233     0.84300
C750        C  0.74799090  0.64396599  0.25067310     0.83900
O751        O  0.76232262  0.52660574  0.31660498    -0.77200
C752        C  0.66675357  0.49967735  0.24589054     0.84700
O753        O  0.81455103  0.52897938  0.26916647    -0.77300
C754        C  0.75340711  0.49985730  0.16906888     0.84900
C755        C  0.74861266  0.35179059  0.25000507     0.85200
O756        O  0.76707481  0.37560985  0.23415319    -0.79800
N757        N  0.99872401  0.94749704  0.03338238    -0.35400
N758        N  0.00082132  0.94771560  0.46668158    -0.55900
N759        N  0.99961391  0.05759594  0.46667754    -0.35400
N760        N  0.00125274  0.05731247  0.03342049    -0.55900
C761        C  0.00544445  0.89777359  0.02723277     0.28200
C762        C  0.00498310  0.95577067  0.06249282     0.28200
C763        C  0.00565781  0.04878827  0.43735442     0.28200
C764        C  0.00646928  0.10692436  0.47258935     0.28200
C765        C  0.99505352  0.89774657  0.47247716     0.36800
C766        C  0.99541125  0.95567417  0.43733708     0.36800
C767        C  0.99567855  0.04968144  0.06291799     0.36800
C768        C  0.99598465  0.10776984  0.02772826     0.36800
C769        C  0.01608789  0.87417510  0.05273742    -0.20700
C770        C  0.01564752  0.91064805  0.07495088    -0.20700
C771        C  0.01641278  0.09321404  0.42451442    -0.20700
C772        C  0.01706243  0.12977063  0.44669566    -0.20700
C773        C  0.98590204  0.87398853  0.44668475    -0.21700
C774        C  0.98631546  0.91055718  0.42446770    -0.21700
C775        C  0.98698839  0.09551922  0.07601498    -0.21700
C776        C  0.98698165  0.13217956  0.05378493    -0.21700
C777        C  0.00021710  0.87208725  0.49995648    -0.17100
C778        C  0.00002382  0.00237555  0.07826262    -0.17100
C779        C  0.00125571  0.13303958  0.50000794    -0.17100
C780        C  0.00029601  0.00240439  0.42181403    -0.17100
H781        H  0.02324110  0.83455208  0.05521697     0.15900
H782        H  0.02252567  0.90463429  0.09762596     0.15900
H783        H  0.02312026  0.09876259  0.40159663     0.15900
H784        H  0.02424512  0.16899050  0.44392498     0.15900
H785        H  0.97979909  0.83422550  0.44401437     0.14100
H786        H  0.98056608  0.90456736  0.40152526     0.14100
H787        H  0.98120903  0.10190926  0.09910198     0.14100
H788        H  0.98119080  0.17239961  0.05661747     0.14100
H789        H  0.98750740  0.97230409  0.01931546     0.27400
H790        H  0.98835162  0.03361714  0.48113834     0.27400
N791        N  0.50102917  0.94522501  0.28358405    -0.35400
N792        N  0.49957141  0.05539656  0.28346820    -0.55900
N793        N  0.50214053  0.05509284  0.21658242    -0.35400
N794        N  0.49934245  0.94510651  0.21668738    -0.55900
C795        C  0.49596716  0.95382878  0.31313999     0.28200
C796        C  0.49490355  0.89539528  0.27802326     0.28200
C797        C  0.49616444  0.10527116  0.22236372     0.28200
C798        C  0.49691289  0.04703792  0.18719034     0.28200
C799        C  0.50400456  0.04806891  0.31305594     0.36800
C800        C  0.50406330  0.10586778  0.27782815     0.36800
C801        C  0.50266793  0.89408646  0.22216554     0.36800
C802        C  0.50348634  0.95205135  0.18689206     0.36800
C803        C  0.48683827  0.90865343  0.32647125    -0.20700
C804        C  0.48605152  0.87196109  0.30442656    -0.20700
C805        C  0.48732267  0.12942355  0.19629593    -0.20700
C806        C  0.48795822  0.09286654  0.17419350    -0.20700
C807        C  0.51102585  0.09418271  0.32625824    -0.21700
C808        C  0.51121858  0.13066506  0.30401228    -0.21700
C809        C  0.50880575  0.86857979  0.19561512    -0.21700
C810        C  0.50912614  0.90514823  0.17337050    -0.21700
C811        C  0.50033182  0.00084794  0.32850693    -0.17100
C812        C  0.49858254  0.86939816  0.25029118    -0.17100
C813        C  0.50064792  0.99982665  0.17162119    -0.17100
C814        C  0.50002313  0.13092023  0.24994880    -0.17100
H815        H  0.48118333  0.90269480  0.34962889     0.15900
H816        H  0.47975097  0.83232042  0.30759443     0.15900
H817        H  0.48109250  0.16944165  0.19339184     0.15900
H818        H  0.48217728  0.09929618  0.15123672     0.15900
H819        H  0.51548721  0.10093337  0.34946921     0.14100
H820        H  0.51594179  0.17102127  0.30690237     0.14100
H821        H  0.51247570  0.82769796  0.19244602     0.14100
H822        H  0.51292661  0.89792132  0.14994155     0.14100
H823        H  0.51096008  0.96993867  0.26855809     0.27400
H824        H  0.51201404  0.02963306  0.23126339     0.27400
N825        N  0.75212595  0.94267886  0.46883666    -0.35400
N826        N  0.75379337  0.94146486  0.03557447    -0.55900
N827        N  0.75183753  0.05164910  0.03560176    -0.35400
N828        N  0.75365855  0.05271470  0.46881505    -0.55900
C829        C  0.75824956  0.89253106  0.47453374     0.28200
C830        C  0.75785040  0.95152346  0.43943000     0.28200
C831        C  0.75802720  0.04244112  0.06472802     0.28200
C832        C  0.75866706  0.10111021  0.02946145     0.28200
C833        C  0.74892178  0.89116626  0.03000676     0.36800
C834        C  0.74891774  0.94874723  0.06521885     0.36800
C835        C  0.74810157  0.04546505  0.43949373     0.36800
C836        C  0.74781481  0.10282663  0.47473827     0.36800
C837        C  0.76795119  0.86916454  0.44837939    -0.20700
C838        C  0.76758456  0.90625643  0.42628668    -0.20700
C839        C  0.76877783  0.08672174  0.07724457    -0.20700
C840        C  0.76942551  0.12352652  0.05500523    -0.20700
C841        C  0.74100039  0.86646158  0.05633961    -0.21700
C842        C  0.74119321  0.90277567  0.07858440    -0.21700
C843        C  0.73877419  0.09119927  0.42669437    -0.21700
C844        C  0.73832951  0.12738358  0.44901842    -0.21700
C845        C  0.75330387  0.86628237  0.00203792    -0.17100
C846        C  0.75296005  0.99866354  0.42396284    -0.17100
C847        C  0.75330995  0.12774871  0.00221913    -0.17100
C848        C  0.75305373  0.99576905  0.08049227    -0.17100
H849        H  0.77433303  0.82924566  0.44538034     0.15900
H850        H  0.77357098  0.90042026  0.40314157     0.15900
H851        H  0.77547080  0.09198125  0.10002771     0.15900
H852        H  0.77669076  0.16265821  0.05753312     0.15900
H853        H  0.73580942  0.82625951  0.05935360     0.14100
H854        H  0.73630788  0.89605811  0.10191740     0.14100
H855        H  0.73294465  0.09779672  0.40370297     0.14100
H856        H  0.73204281  0.16743706  0.44644619     0.14100
H857        H  0.74153574  0.96751338  0.48357319     0.27400
H858        H  0.74053813  0.02772346  0.02150474     0.27400
N859        N  0.75489686  0.94307413  0.28598032    -0.35400
N860        N  0.75285428  0.05327129  0.28546606    -0.55900
N861        N  0.75409277  0.05242178  0.21855568    -0.35400
N862        N  0.75260020  0.94250550  0.21915866    -0.55900
C863        C  0.74979141  0.95205906  0.31547706     0.28200
C864        C  0.74842253  0.89333660  0.28055493     0.28200
C865        C  0.74706745  0.10216467  0.22439865     0.28200
C866        C  0.74830641  0.04357211  0.18935574     0.28200
C867        C  0.75807065  0.04618854  0.31494362     0.36800
C868        C  0.75701424  0.10374277  0.27948289     0.36800
C869        C  0.75705012  0.89184975  0.22492814     0.36800
C870        C  0.75740230  0.94940564  0.18946096     0.36800
C871        C  0.74035922  0.90720927  0.32898627    -0.20700
C872        C  0.73929152  0.87037612  0.30701364    -0.20700
C873        C  0.73676421  0.12520308  0.19854913    -0.20700
C874        C  0.73774609  0.08842285  0.17647546    -0.20700
C875        C  0.76546926  0.09244108  0.32777460    -0.21700
C876        C  0.76497812  0.12877083  0.30535247    -0.21700
C877        C  0.76474586  0.86659261  0.19869876    -0.21700
C878        C  0.76480123  0.90291101  0.17630041    -0.21700
C879        C  0.75434303  0.99914985  0.33064551    -0.17100
C880        C  0.75217989  0.86709367  0.25289271    -0.17100
C881        C  0.75327886  0.99655184  0.17390019    -0.17100
C882        C  0.75161255  0.12848673  0.25170135    -0.17100
H883        H  0.73474341  0.90158809  0.35224938     0.15900
H884        H  0.73269806  0.83092953  0.31029501     0.15900
H885        H  0.72951616  0.16470752  0.19573790     0.15900
H886        H  0.73134901  0.09405833  0.15357207     0.15900
H887        H  0.77046692  0.09936292  0.35089395     0.14100
H888        H  0.76963142  0.16921745  0.30795593     0.14100
H889        H  0.76957124  0.82599164  0.19585448     0.14100
H890        H  0.76951335  0.89581139  0.15298034     0.14100
H891        H  0.76499539  0.96754526  0.27090789     0.27400
H892        H  0.76513736  0.02796584  0.23293842     0.27400
C893        C  0.75351326  0.99915155  0.39096915    -0.12000
C894        C  0.75399312  0.99939705  0.36364803    -0.13600
C895        C  0.75309326  0.99599696  0.11352379    -0.12000
C896        C  0.75310485  0.99637760  0.14086567    -0.13600
C897        C  0.00039487  0.00223593  0.38882330    -0.12000
C898        C  0.50029706  0.00112408  0.36151446    -0.13600
C899        C  0.00020689  0.00159882  0.11126975    -0.12000
C900        C  0.50041222  0.00049646  0.13859499    -0.13600
C901        C  0.72917697  0.26701575  0.26770653    -0.12100
C902        C  0.74900866  0.29465248  0.25019480     0.10000
C903        C  0.76946391  0.26711099  0.23302470    -0.12100
C904        C  0.77023641  0.21328833  0.23354304    -0.12100
C905        C  0.75050072  0.18585396  0.25108942     0.10000
C906        C  0.72985963  0.21312169  0.26804937    -0.12100
H907        H  0.71314847  0.28699128  0.28119259     0.14000
H908        H  0.78502398  0.28712271  0.21927506     0.14000
H909        H  0.78631887  0.19290708  0.22031728     0.14000
H910        H  0.71437488  0.19258594  0.28164036     0.14000
C911        C  0.72894378  0.73098888  0.23534761    -0.12100
C912        C  0.74865291  0.70104604  0.25170592     0.10000
C913        C  0.76915641  0.72621622  0.26896147    -0.12100
C914        C  0.77017267  0.78001716  0.26950712    -0.12100
C915        C  0.75053995  0.80976472  0.25307498     0.10000
C916        C  0.72975500  0.78478836  0.23621250    -0.12100
H917        H  0.71285723  0.71288188  0.22188059     0.14000
H918        H  0.78465638  0.70435184  0.28181534     0.14000
H919        H  0.78642037  0.79853974  0.28258222     0.14000
H920        H  0.71435709  0.80707463  0.22344656     0.14000
C921        C  0.73572660  0.26708162  0.02163374    -0.12100
C922        C  0.75390062  0.29408131  0.50195133     0.10000
C923        C  0.77226317  0.26591613  0.48273994    -0.12100
C924        C  0.77235187  0.21205798  0.48312511    -0.12100
C925        C  0.75382585  0.18520673  0.50242418     0.10000
C926        C  0.73558484  0.21323456  0.02173663    -0.12100
H927        H  0.72139199  0.28753346  0.03680776     0.14000
H928        H  0.78653021  0.28545372  0.46731796     0.14000
H929        H  0.78673462  0.19120995  0.46817009     0.14000
H930        H  0.72111108  0.19332893  0.03679447     0.14000
C931        C  0.77221894  0.72585086  0.51720740    -0.12100
C932        C  0.75170550  0.70013672  0.00024648     0.10000
C933        C  0.73178018  0.72956516  0.98385057    -0.12100
C934        C  0.73230163  0.78339899  0.98451270    -0.12100
C935        C  0.75283450  0.80889985  0.00141864     0.10000
C936        C  0.77286251  0.77967750  0.51765001    -0.12100
H937        H  0.78788581  0.70440485  0.53007339     0.14000
H938        H  0.71570770  0.71103476  0.97056055     0.14000
H939        H  0.71665882  0.80529525  0.97184618     0.14000
H940        H  0.78895459  0.79864700  0.53071539     0.14000
C941        C  0.74634189  0.49524138  0.38771081    -0.12000
C942        C  0.74517513  0.49590541  0.36127292    -0.13600
C943        C  0.75551896  0.49969574  0.11127445    -0.12000
C944        C  0.75516509  0.50016763  0.13776529    -0.13600
C945        C  0.52003952  0.26919530  0.23340913    -0.12100
C946        C  0.99867917  0.29685886  0.24929039     0.10000
C947        C  0.97754878  0.26943455  0.26514108    -0.12100
C948        C  0.97784518  0.21558961  0.26516712    -0.12100
C949        C  0.49941528  0.18820387  0.24960391     0.10000
C950        C  0.52046860  0.21537294  0.23369540    -0.12100
H951        H  0.53662577  0.28911324  0.22099686     0.14000
H952        H  0.96074248  0.28955684  0.27749148     0.14000
H953        H  0.96134293  0.19517063  0.27743723     0.14000
H954        H  0.53726527  0.19479298  0.22156720     0.14000
C955        C  0.51898492  0.78363025  0.26583071    -0.12100
C956        C  0.49780676  0.81207549  0.25075603     0.10000
C957        C  0.97611390  0.78588441  0.23591751    -0.12100
C958        C  0.97589347  0.73203633  0.23569880    -0.12100
C959        C  0.49719120  0.70333338  0.25063639     0.10000
C960        C  0.51863287  0.72978135  0.26587860    -0.12100
H961        H  0.53587503  0.80323024  0.27741908     0.14000
H962        H  0.95951059  0.80723924  0.22429544     0.14000
H963        H  0.95902140  0.71291474  0.22383353     0.14000
H964        H  0.53532746  0.70888923  0.27761372     0.14000
C965        C  0.88607913  0.49992031  0.25603516    -0.12000
C966        C  0.86021158  0.49865554  0.25540060    -0.13600
C967        C  0.61009539  0.50079757  0.24427716    -0.12000
C968        C  0.63597721  0.50035376  0.24458366    -0.13600
C969        C  0.52077822  0.27098781  0.51764998    -0.12100
C970        C  0.00174018  0.29928445  0.49955467     0.10000
C971        C  0.98274080  0.27241923  0.98136086    -0.12100
C972        C  0.98258069  0.21853686  0.98154093    -0.12100
C973        C  0.00159078  0.19045195  0.49966505     0.10000
C974        C  0.52082524  0.21716133  0.51754348    -0.12100
H975        H  0.53574114  0.29040988  0.53187728     0.14000
H976        H  0.96784301  0.29300006  0.96713596     0.14000
H977        H  0.96755785  0.19863811  0.96759398     0.14000
H978        H  0.53578661  0.19622753  0.53154367     0.14000
C979        C  0.98200498  0.73360251  0.01877230    -0.12100
C980        C  0.50112147  0.70596019  0.00006483     0.10000
C981        C  0.52009576  0.73344883  0.48149654    -0.12100
C982        C  0.51994678  0.78727969  0.48164144    -0.12100
C983        C  0.00064797  0.81472337  0.00011609     0.10000
C984        C  0.98170290  0.78744546  0.01869565    -0.12100
H985        H  0.96718023  0.71365860  0.03341948     0.14000
H986        H  0.53505495  0.71339509  0.46679562     0.14000
H987        H  0.53482136  0.80764741  0.46723759     0.14000
H988        H  0.96664202  0.80794065  0.03309713     0.14000
C989        C  0.88959335  0.50156669  0.49382529    -0.12000
C990        C  0.86370379  0.50052161  0.99393117    -0.13600
C991        C  0.63926269  0.49804583  0.50441749    -0.12000
C992        C  0.61336973  0.49865686  0.00440605    -0.13600
C993        C  0.50674463  0.49873632  0.36130245    -0.12000
C994        C  0.00734541  0.49999174  0.38778519    -0.13600
C995        C  0.99332170  0.50041190  0.13802264    -0.12000
C996        C  0.49351836  0.50092348  0.11154823    -0.13600
O997        O  0.98885146  0.47158268  0.93245767    -0.77300
C998        C  0.00176642  0.35641008  0.99979195     0.83800
O999        O  0.93183010  0.53523637  0.51234437    -0.78400
O1000       O  0.51365912  0.47106315  0.56802077    -0.79900
O1001       O  0.57036830  0.53167455  0.98582676    -0.79700
O1002       O  0.52217816  0.53297837  0.93241252    -0.78300
Zn1003     Zn  0.97798961  0.45747998  0.97443815     1.55700
O1004       O  0.56851027  0.46906119  0.51992001    -0.79700
Cd1005     Cd  0.52771377  0.54705390  0.97648652     1.59700
Cd1006     Cd  0.97430374  0.54778752  0.52205799     1.59600
O1007       O  0.51978378  0.62467473  0.98398639    -0.79700
O1008       O  0.00093444  0.50165907  0.99910730    -1.90200
Cd1009     Cd  0.52495581  0.45654485  0.52503779     1.59900
O1010       O  0.98245590  0.62507090  0.51535522    -0.79600
O1011       O  0.51828197  0.37941016  0.51757573    -0.78300
C1012       C  0.92036592  0.50282534  0.99519034     0.84300
C1013       C  0.00614118  0.50155470  0.91912921     0.83900
O1014       O  0.98536024  0.38156416  0.98229910    -0.77200
C1015       C  0.58258075  0.49990441  0.50339949     0.84700
O1016       O  0.93524635  0.47118375  0.97960678    -0.77300
C1017       C  0.50114783  0.64885542  0.49980571     0.84900
C1018       C  0.49550406  0.50139406  0.58028788     0.85200
O1019       O  0.97928758  0.53233087  0.56611237    -0.79800
O1020       O  0.51525830  0.62098290  0.76567992    -0.77300
C1021       C  0.50409213  0.49838030  0.83009354     0.83800
O1022       O  0.56626738  0.46786146  0.72933522    -0.78400
O1023       O  0.98133818  0.37798151  0.76694069    -0.79900
O1024       O  0.92914222  0.53202790  0.73724895    -0.79700
O1025       O  0.97901373  0.62330737  0.73406200    -0.78300
Zn1026     Zn  0.52412481  0.54524342  0.77204973     1.55700
O1027       O  0.93097432  0.47013123  0.77178522    -0.79700
Cd1028     Cd  0.97180748  0.54591444  0.72742722     1.59700
Cd1029     Cd  0.52291633  0.45511483  0.72456842     1.59600
O1030       O  0.97800441  0.53085089  0.68347082    -0.79700
O1031       O  0.49867542  0.50099004  0.75032099    -1.90200
Cd1032     Cd  0.97461936  0.45536747  0.77591042     1.59900
O1033       O  0.51256741  0.46984519  0.68151509    -0.79600
O1034       O  0.98619566  0.46782301  0.81881481    -0.78300
C1035       C  0.57929002  0.50057475  0.74500839     0.84300
C1036       C  0.49714048  0.64621548  0.75013053     0.83900
O1037       O  0.51933269  0.52930516  0.81491179    -0.77200
C1038       C  0.91690019  0.50095649  0.75515531     0.84700
O1039       O  0.56592612  0.53258677  0.76168829    -0.77300
C1040       C  0.99461895  0.50023568  0.66927793     0.84900
C1041       C  0.99863534  0.35392302  0.74954350     0.85200
O1042       O  0.51600914  0.37779820  0.73245674    -0.79800
O1043       O  0.76891217  0.61741184  0.51541312    -0.77300
C1044       C  0.75436925  0.49830242  0.57999566     0.83800
O1045       O  0.82004702  0.46699759  0.97870189    -0.78400
O1046       O  0.73579243  0.37552057  0.51816109    -0.79900
O1047       O  0.68263584  0.53008188  0.98638694    -0.79700
O1048       O  0.73304718  0.62053574  0.98335764    -0.78300
Zn1049     Zn  0.77729996  0.54189313  0.52229816     1.55700
O1050       O  0.68386769  0.46590897  0.51948984    -0.79700
Cd1051     Cd  0.72549141  0.54312633  0.97684351     1.59700
Cd1052     Cd  0.77673384  0.45221120  0.97450443     1.59600
O1053       O  0.73179393  0.52709520  0.93302863    -0.79700
O1054       O  0.75211584  0.49806081  0.49998102    -1.90200
Cd1055     Cd  0.72744388  0.45287390  0.52518155     1.59900
O1056       O  0.76595834  0.46531990  0.93129124    -0.79600
O1057       O  0.73656101  0.46816573  0.56827159    -0.78300
C1058       C  0.83289029  0.49894219  0.49507756     0.84300
C1059       C  0.75117324  0.64303628  0.49963660     0.83900
O1060       O  0.77095724  0.52745328  0.56516620    -0.77200
C1061       C  0.67008230  0.49802866  0.00344071     0.84700
O1062       O  0.81932776  0.52927781  0.51263161    -0.77300
C1063       C  0.74810061  0.49579643  0.91894987     0.89300
C1064       C  0.75341877  0.35120308  0.00124501     0.85200
O1065       O  0.77048501  0.37483435  0.98365473    -0.79800
O1066       O  0.76465963  0.61789545  0.76741946    -0.77300
C1067       C  0.74500094  0.49678289  0.82996496     0.83800
O1068       O  0.81797568  0.46505322  0.73643984    -0.78400
O1069       O  0.72995093  0.37595105  0.76578248    -0.79900
O1070       O  0.68076525  0.53097712  0.72960050    -0.79700
O1071       O  0.73087661  0.62191673  0.73304326    -0.78300
Zn1072     Zn  0.77198514  0.54217519  0.77464489     1.55700
O1073       O  0.67901978  0.46802620  0.76349228    -0.79700
Cd1074     Cd  0.72429740  0.54461057  0.72468619     1.59700
Cd1075     Cd  0.77521138  0.45285004  0.72703525     1.59600
O1076       O  0.73553269  0.53056424  0.68152140    -0.79700
O1077       O  0.74856737  0.49882150  0.75008769    -1.90200
Cd1078     Cd  0.72178296  0.45353036  0.77280428     1.59900
O1079       O  0.76956675  0.46854654  0.68307628    -0.79600
O1080       O  0.72792311  0.46715559  0.81673736    -0.78300
C1081       C  0.82945361  0.49740479  0.75364286     0.84300
C1082       C  0.74799097  0.64396606  0.75067338     0.83900
O1083       O  0.76232221  0.52660581  0.81660532    -0.77200
C1084       C  0.66675344  0.49967775  0.74589042     0.84700
O1085       O  0.81455089  0.52897907  0.76916708    -0.77300
C1086       C  0.75340739  0.49985831  0.66906898     0.84900
C1087       C  0.74861247  0.35179096  0.75000507     0.85200
O1088       O  0.76707460  0.37561024  0.73415316    -0.79800
N1089       N  0.99872516  0.94749684  0.53338256    -0.35400
N1090       N  0.00082050  0.94771573  0.96668146    -0.55900
N1091       N  0.99961374  0.05759617  0.96667734    -0.35400
N1092       N  0.00125303  0.05731218  0.53342074    -0.55900
C1093       C  0.00544574  0.89777351  0.52723290     0.28200
C1094       C  0.00498424  0.95577051  0.56249299     0.28200
C1095       C  0.00565755  0.04878834  0.93735423     0.28200
C1096       C  0.00646935  0.10692449  0.97258909     0.28200
C1097       C  0.99505263  0.89774669  0.97247695     0.36800
C1098       C  0.99541068  0.95567431  0.93733691     0.36800
C1099       C  0.99567891  0.04968099  0.56291824     0.36800
C1100       C  0.99598441  0.10776937  0.52772850     0.36800
C1101       C  0.01608931  0.87417506  0.55273752    -0.20700
C1102       C  0.01564887  0.91064798  0.57495101    -0.20700
C1103       C  0.01641269  0.09321393  0.92451415    -0.20700
C1104       C  0.01706255  0.12977056  0.94669535    -0.20700
C1105       C  0.98590136  0.87398869  0.94668445    -0.21700
C1106       C  0.98631499  0.91055734  0.92446743    -0.21700
C1107       C  0.98698825  0.09551849  0.57601522    -0.21700
C1108       C  0.98698111  0.13217880  0.55378516    -0.21700
C1109       C  0.00021594  0.87208733  0.99995631    -0.17100
C1110       C  0.00002463  0.00237522  0.57826283    -0.17100
C1111       C  0.00125599  0.13303988  0.00000764    -0.17100
C1112       C  0.00029560  0.00240448  0.92181389    -0.17100
H1113       H  0.02324257  0.83455207  0.55521704     0.15900
H1114       H  0.02252701  0.90463423  0.59762609     0.15900
H1115       H  0.02312018  0.09876231  0.90159636     0.15900
H1116       H  0.02424542  0.16899032  0.94392463     0.15900
H1117       H  0.97979840  0.83422569  0.94401397     0.14100
H1118       H  0.98056582  0.90456754  0.90152493     0.14100
H1119       H  0.98120883  0.10190835  0.59910222     0.14100
H1120       H  0.98118985  0.17239868  0.55661768     0.14100
H1121       H  0.98750835  0.97230376  0.51931565     0.27400
H1122       H  0.98835136  0.03361750  0.98113821     0.27400
N1123       N  0.50102923  0.94522453  0.78358405    -0.35400
N1124       N  0.49957150  0.05539611  0.78346820    -0.55900
N1125       N  0.50214080  0.05509238  0.71658251    -0.35400
N1126       N  0.49934267  0.94510605  0.71668747    -0.55900
C1127       C  0.49596718  0.95382832  0.81313996     0.28200
C1128       C  0.49490375  0.89539475  0.77802328     0.28200
C1129       C  0.49616435  0.10527055  0.72236389     0.28200
C1130       C  0.49691285  0.04703734  0.68719052     0.28200
C1131       C  0.50400481  0.04806837  0.81305589     0.36800
C1132       C  0.50406373  0.10586720  0.77782812     0.36800
C1133       C  0.50266826  0.89408602  0.72216561     0.36800
C1134       C  0.50348678  0.95205096  0.68689219     0.36800
C1135       C  0.48683841  0.90865291  0.82647125    -0.20700
C1136       C  0.48605178  0.87196051  0.80442659    -0.20700
C1137       C  0.48732198  0.12942269  0.69629625    -0.20700
C1138       C  0.48795755  0.09286569  0.67419382    -0.20700
C1139       C  0.51102658  0.09418197  0.82625813    -0.21700
C1140       C  0.51121944  0.13066431  0.80401217    -0.21700
C1141       C  0.50880635  0.86857943  0.69561523    -0.21700
C1142       C  0.50912683  0.90514792  0.67337064    -0.21700
C1143       C  0.50033182  0.00084750  0.82850688    -0.17100
C1144       C  0.49858278  0.86939766  0.75029121    -0.17100
C1145       C  0.50064823  0.99982622  0.67162133    -0.17100
C1146       C  0.50002331  0.13091972  0.74994886    -0.17100
H1147       H  0.48118351  0.90269425  0.84962889     0.15900
H1148       H  0.47975134  0.83231979  0.80759448     0.15900
H1149       H  0.48109140  0.16944062  0.69339228     0.15900
H1150       H  0.48217621  0.09929512  0.65123713     0.15900
H1151       H  0.51548821  0.10093249  0.84946905     0.14100
H1152       H  0.51594297  0.17102041  0.80690219     0.14100
H1153       H  0.51247644  0.82769763  0.69244614     0.14100
H1154       H  0.51292751  0.89792109  0.64994170     0.14100
H1155       H  0.51096009  0.96993831  0.76855804     0.27400
H1156       H  0.51201479  0.02963287  0.73126330     0.27400
N1157       N  0.75212810  0.94267861  0.96883652    -0.35400
N1158       N  0.75379126  0.94146537  0.53557463    -0.55900
N1159       N  0.75183696  0.05164958  0.53560177    -0.35400
N1160       N  0.75365924  0.05271450  0.96881506    -0.55900
C1161       C  0.75825223  0.89253099  0.97453349     0.28200
C1162       C  0.75785237  0.95152358  0.93942988     0.28200
C1163       C  0.75802642  0.04244152  0.56472809     0.28200
C1164       C  0.75866692  0.10111050  0.52946144     0.28200
C1165       C  0.74891897  0.89116702  0.53000697     0.36800
C1166       C  0.74891569  0.94874803  0.56521899     0.36800
C1167       C  0.74810212  0.04546467  0.93949380     0.36800
C1168       C  0.74781465  0.10282608  0.97473841     0.36800
C1169       C  0.76795408  0.86916493  0.94837908    -0.20700
C1170       C  0.76758703  0.90625695  0.92628645    -0.20700
C1171       C  0.76877733  0.08672189  0.57724465    -0.20700
C1172       C  0.76942538  0.12352661  0.55500529    -0.20700
C1173       C  0.74099712  0.86646278  0.55633981    -0.21700
C1174       C  0.74119041  0.90277690  0.57858456    -0.21700
C1175       C  0.73877379  0.09119842  0.92669461    -0.21700
C1176       C  0.73832866  0.12738262  0.94901872    -0.21700
C1177       C  0.75330104  0.86628280  0.50203826    -0.17100
C1178       C  0.75296129  0.99866349  0.92396281    -0.17100
C1179       C  0.75331021  0.12774907  0.50221904    -0.17100
C1180       C  0.75305247  0.99576961  0.58049237    -0.17100
H1181       H  0.77433630  0.82924625  0.94537995     0.15900
H1182       H  0.77357343  0.90042110  0.90314131     0.15900
H1183       H  0.77547019  0.09198132  0.60002783     0.15900
H1184       H  0.77669087  0.16265814  0.55753320     0.15900
H1185       H  0.73580562  0.82626093  0.55935379     0.14100
H1186       H  0.73630492  0.89605963  0.60191756     0.14100
H1187       H  0.73294390  0.09779561  0.90370328     0.14100
H1188       H  0.73204123  0.16743577  0.94644664     0.14100
H1189       H  0.74153755  0.96751271  0.98357316     0.27400
H1190       H  0.74053748  0.02772433  0.52150475     0.27400
N1191       N  0.75489731  0.94307429  0.78598040    -0.35400
N1192       N  0.75285426  0.05327163  0.78546606    -0.55900
N1193       N  0.75409262  0.05242198  0.71855570    -0.35400
N1194       N  0.75260034  0.94250554  0.71915879    -0.55900
C1195       C  0.74979207  0.95205925  0.81547715     0.28200
C1196       C  0.74842325  0.89333662  0.78055513     0.28200
C1197       C  0.74706736  0.10216491  0.72439861     0.28200
C1198       C  0.74830622  0.04357220  0.68935580     0.28200
C1199       C  0.75807073  0.04618897  0.81494361     0.36800
C1200       C  0.75701403  0.10374317  0.77948287     0.36800
C1201       C  0.75705018  0.89184974  0.72492822     0.36800
C1202       C  0.75740199  0.94940562  0.68946101     0.36800
C1203       C  0.74036030  0.90720930  0.82898654    -0.20700
C1204       C  0.73929263  0.87037603  0.80701397    -0.20700
C1205       C  0.73676413  0.12520326  0.69854906    -0.20700
C1206       C  0.73774595  0.08842295  0.67647546    -0.20700
C1207       C  0.76546916  0.09244162  0.82777457    -0.21700
C1208       C  0.76497785  0.12877135  0.80535243    -0.21700
C1209       C  0.76474542  0.86659251  0.69869872    -0.21700
C1210       C  0.76480055  0.90291090  0.67630036    -0.21700
C1211       C  0.75434351  0.99915018  0.83064552    -0.17100
C1212       C  0.75218033  0.86709369  0.75289288    -0.17100
C1213       C  0.75327849  0.99655185  0.67390027    -0.17100
C1214       C  0.75161238  0.12848706  0.75170129    -0.17100
H1215       H  0.73474473  0.90158810  0.85224970     0.15900
H1216       H  0.73269943  0.83092933  0.81029547     0.15900
H1217       H  0.72951610  0.16470771  0.69573779     0.15900
H1218       H  0.73134883  0.09405837  0.65357208     0.15900
H1219       H  0.77046687  0.09936354  0.85089390     0.14100
H1220       H  0.76963106  0.16921800  0.80795588     0.14100
H1221       H  0.76957062  0.82599149  0.69585436     0.14100
H1222       H  0.76951226  0.89581119  0.65298021     0.14100
H1223       H  0.76499555  0.96754577  0.77090775     0.27400
H1224       H  0.76513721  0.02796595  0.73293853     0.27400
C1225       C  0.75351429  0.99915168  0.89096914    -0.12000
C1226       C  0.75399390  0.99939735  0.86364802    -0.13600
C1227       C  0.75309230  0.99599734  0.61352389    -0.12000
C1228       C  0.75310418  0.99637765  0.64086577    -0.13600
C1229       C  0.00039457  0.00223590  0.88882319    -0.12000
C1230       C  0.50029689  0.00112380  0.86151437    -0.13600
C1231       C  0.00020758  0.00159844  0.61126994    -0.12000
C1232       C  0.50041274  0.00049610  0.63859516    -0.13600
C1233       C  0.72917687  0.26701610  0.76770659    -0.12100
C1234       C  0.74900846  0.29465285  0.75019476     0.10000
C1235       C  0.76946360  0.26711138  0.73302451    -0.12100
C1236       C  0.77023610  0.21328871  0.73354283    -0.12100
C1237       C  0.75050050  0.18585431  0.75108932     0.10000
C1238       C  0.72985951  0.21312205  0.76804939    -0.12100
H1239       H  0.71314845  0.28699163  0.78119277     0.14000
H1240       H  0.78502360  0.28712310  0.71927478     0.14000
H1241       H  0.78631849  0.19290748  0.72031697     0.14000
H1242       H  0.71437482  0.19258630  0.78164047     0.14000
C1243       C  0.72894376  0.73098900  0.73534817    -0.12100
C1244       C  0.74865310  0.70104608  0.75170616     0.10000
C1245       C  0.76915693  0.72621614  0.76896134    -0.12100
C1246       C  0.77017329  0.78001708  0.76950697    -0.12100
C1247       C  0.75054034  0.80976473  0.75307517     0.10000
C1248       C  0.72975507  0.78478847  0.73621306    -0.12100
H1249       H  0.71285696  0.71288208  0.72188143     0.14000
H1250       H  0.78465708  0.70435168  0.78181494     0.14000
H1251       H  0.78642123  0.79853958  0.78258178     0.14000
H1252       H  0.71435698  0.80707481  0.72344738     0.14000
C1253       C  0.73572734  0.26708215  0.52163347    -0.12100
C1254       C  0.75389952  0.29408099  0.00195135     0.10000
C1255       C  0.77226186  0.26591604  0.98273965    -0.12100
C1256       C  0.77235079  0.21205791  0.98312482    -0.12100
C1257       C  0.75382521  0.18520640  0.00242421     0.10000
C1258       C  0.73558535  0.21323513  0.52173633    -0.12100
H1259       H  0.72139257  0.28753413  0.53680725     0.14000
H1260       H  0.78652860  0.28545378  0.96731744     0.14000
H1261       H  0.78673342  0.19121008  0.96816958     0.14000
H1262       H  0.72111127  0.19332969  0.53679393     0.14000
C1263       C  0.77222052  0.72584988  0.01720712    -0.12100
C1264       C  0.75170412  0.70013708  0.50024682     0.10000
C1265       C  0.73177822  0.72956494  0.48385131    -0.12100
C1266       C  0.73229906  0.78339881  0.48451360    -0.12100
C1267       C  0.75283188  0.80890027  0.50141929     0.10000
C1268       C  0.77286474  0.77967648  0.01764953    -0.12100
H1269       H  0.78788702  0.70440341  0.03007336     0.14000
H1270       H  0.71570581  0.71103406  0.47056143     0.14000
H1271       H  0.71665592  0.80529462  0.47184726     0.14000
H1272       H  0.78895689  0.79864549  0.03071505     0.14000
C1273       C  0.74634101  0.49524136  0.88771103    -0.12000
C1274       C  0.74517440  0.49590549  0.86127313    -0.13600
C1275       C  0.75551943  0.49969708  0.61127452    -0.12000
C1276       C  0.75516550  0.50016898  0.63776537    -0.13600
C1277       C  0.52003918  0.26919488  0.73340878    -0.12100
C1278       C  0.99867910  0.29685835  0.74929047     0.10000
C1279       C  0.97754903  0.26943393  0.76514155    -0.12100
C1280       C  0.97784552  0.21558900  0.76516761    -0.12100
C1281       C  0.49941538  0.18820334  0.74960398     0.10000
C1282       C  0.52046836  0.21537253  0.73369505    -0.12100
H1283       H  0.53662518  0.28911290  0.72099618     0.14000
H1284       H  0.96074290  0.28955613  0.77749226     0.14000
H1285       H  0.96134351  0.19516993  0.77743803     0.14000
H1286       H  0.53726486  0.19479266  0.72156654     0.14000
C1287       C  0.51898501  0.78362968  0.76583080    -0.12100
C1288       C  0.49780696  0.81207501  0.75075601     0.10000
C1289       C  0.97611406  0.78588406  0.73591747    -0.12100
C1290       C  0.97589350  0.73203599  0.73569883    -0.12100
C1291       C  0.49719113  0.70333294  0.75063652     0.10000
C1292       C  0.51863283  0.72978080  0.76587876    -0.12100
H1293       H  0.53587512  0.80322958  0.77741921     0.14000
H1294       H  0.95951083  0.80723898  0.72429534     0.14000
H1295       H  0.95902143  0.71291447  0.72383354     0.14000
H1296       H  0.53532733  0.70888860  0.77761396     0.14000
C1297       C  0.88607900  0.49992007  0.75603566    -0.12000
C1298       C  0.86021146  0.49865531  0.75540117    -0.13600
C1299       C  0.61009525  0.50079789  0.74427705    -0.12000
C1300       C  0.63597707  0.50035421  0.74458349    -0.13600
C1301       C  0.52077828  0.27098833  0.01764936    -0.12100
C1302       C  0.00173986  0.29928475  0.99955434     0.10000
C1303       C  0.98274116  0.27241915  0.48136104    -0.12100
C1304       C  0.98258075  0.21853679  0.48154118    -0.12100
C1305       C  0.00159102  0.19045224  0.99966459     0.10000
C1306       C  0.52082556  0.21716184  0.01754278    -0.12100
H1307       H  0.53574127  0.29041057  0.03187651     0.14000
H1308       H  0.96784361  0.29300015  0.46713593     0.14000
H1309       H  0.96755797  0.19863824  0.46759408     0.14000
H1310       H  0.53578717  0.19622822  0.03154279     0.14000
C1311       C  0.98200626  0.73360244  0.51877243    -0.12100
C1312       C  0.50112302  0.70596015  0.50006522     0.10000
C1313       C  0.52009405  0.73344882  0.98149596    -0.12100
C1314       C  0.51994524  0.78727965  0.98164098    -0.12100
C1315       C  0.00064923  0.81472332  0.50011629     0.10000
C1316       C  0.98170405  0.78744538  0.51869570    -0.12100
H1317       H  0.96718138  0.71365851  0.53341945     0.14000
H1318       H  0.53505305  0.71339505  0.96679484     0.14000
H1319       H  0.53481975  0.80764730  0.96723702     0.14000
H1320       H  0.96664300  0.80794054  0.53309699     0.14000
C1321       C  0.88959271  0.50156581  0.99382458    -0.12000
C1322       C  0.86370442  0.50052277  0.49393180    -0.13600
C1323       C  0.63926208  0.49804747  0.00441737    -0.12000
C1324       C  0.61337034  0.49865529  0.50440621    -0.13600
C1325       C  0.50674484  0.49873529  0.86130241    -0.12000
C1326       C  0.00734568  0.49999076  0.88778512    -0.13600
C1327       C  0.99332166  0.50041140  0.63802283    -0.12000
C1328       C  0.49351851  0.50092306  0.61154843    -0.13600
loop_ 
_geom_bond_atom_site_label_1 
_geom_bond_atom_site_label_2 
_geom_bond_distance 
_geom_bond_site_symmetry_2 
_ccdc_geom_bond_type 
O1           C17   1.270       .  A
O1           Zn7   1.978       .  S
C2           O18   1.274       .  A
C2         O1011   1.272       .  A
C2          C306   1.483       .  S
O3          C348   1.271   1_554  A
O3          Cd10   2.063       .  S
O4           C22   1.269   1_455  A
O4          Cd13   2.028       .  S
O5          C351   1.272       .  A
O5           Cd9   2.070       .  S
O6          C681   1.270       .  A
O6           Cd9   2.033       .  S
Zn7          O18   2.025       .  S
Zn7          O20   2.029       .  S
Zn7          O12   1.939       .  S
O8           C19   1.272       .  A
O8          Cd13   2.070       .  S
Cd9          O11   2.071       .  S
Cd9         O676   1.994       .  S
Cd10         O14   2.067       .  S
Cd10         O23   2.031       .  S
Cd10        O344   1.992   1_554  S
O11         C353   1.274       .  A
O12        Cd673   1.994       .  S
O12        Cd342   1.992       .  S
O12       Cd1009   1.990       .  S
Cd13         O15   2.060       .  S
Cd13       O1008   1.990   1_554  S
O14         C685   1.274   1_554  A
O15         C998   1.272   1_554  A
C16          O20   1.273       .  A
C16         O335   1.271       .  A
C16         C325   1.437       .  S
C17         O670   1.270       .  A
C17         C330   1.408       .  S
C19         O337   1.272   1_554  A
C19         C328   1.436       .  S
C21         O343   1.274       .  A
C21         O678   1.274   1_456  A
C21         C316   1.482   1_556  S
C22         O687   1.269       .  A
C22         C332   1.404       .  S
O23         C686   1.269       .  A
O24          C40   1.274   1_455  A
O24         Zn30   2.023       .  S
C25          O41   1.269       .  A
C25         O702   1.271   1_455  A
C25         C329   1.407       .  S
O26          C39   1.271       .  A
O26         Cd33   2.066       .  S
O27          C45   1.274       .  A
O27         Cd36   2.069       .  S
O28          C42   1.272       .  A
O28         Cd32   2.067       .  S
O29         C704   1.273       .  A
O29         Cd32   2.065       .  S
Zn30         O41   1.976       .  S
Zn30         O43   2.019       .  S
Zn30         O35   1.938   1_455  S
O31          C42   1.273       .  A
O31         Cd36   2.075       .  S
Cd32         O34   2.029       .  S
Cd32        O699   1.991       .  S
Cd33         O37   2.031       .  S
Cd33         O46   2.065       .  S
Cd33         O35   1.992   1_455  S
O34          C44   1.269       .  A
O35        Cd696   1.991       .  S
O35        Cd700   1.992       .  S
Cd36         O38   2.035       .  S
Cd36        O699   1.992       .  S
O37         C708   1.270   1_455  A
O38         C689   1.271       .  A
C39          O43   1.271       .  A
C39         C303   1.436       .  S
C40         O693   1.273       .  A
C40         C295   1.483       .  S
C42         C301   1.437       .  S
C44         O701   1.270       .  A
C44         C331   1.404       .  S
C45         O710   1.273       .  A
C45         C282   1.481       .  S
O46         C709   1.273   1_455  A
O47          C63   1.274   1_554  A
O47         Zn53   2.016       .  S
C48          O64   1.269       .  A
C48          O61   1.269       .  A
C48         C279   1.406       .  S
O49         C394   1.272       .  A
O49         Cd56   2.071       .  S
O50         C400   1.274       .  A
O50         Cd59   2.064       .  S
O51          C65   1.271       .  A
O51         Cd55   2.069       .  S
O52         C395   1.274       .  A
O52         Cd55   2.067       .  S
Zn53         O64   1.977       .  S
Zn53         O66   2.023       .  S
Zn53         O58   1.937   1_554  S
O54         C397   1.272       .  A
O54         Cd59   2.073       .  S
Cd55         O57   2.028       .  S
Cd55        O390   1.991       .  S
Cd56         O60   2.035       .  S
Cd56         O69   2.072       .  S
Cd56        O390   1.994       .  S
O57          C67   1.269       .  A
O58         Cd59   1.992   1_556  S
O58        Cd387   1.991       .  S
O58        Cd388   1.994       .  S
Cd59         O61   2.027       .  S
O60          C67   1.270       .  A
C62          O66   1.272   1_556  A
C62         O381   1.272       .  A
C62         C326   1.437       .  S
C63         O384   1.274       .  A
C63         C268   1.483   1_556  S
C65         O386   1.272       .  A
C65         C327   1.436       .  S
C67         C277   1.405       .  S
C68          O69   1.275       .  A
C68         O382   1.274       .  A
C68         C258   1.483       .  S
O70          C86   1.273       .  A
O70         Zn76   2.015       .  S
C71          O87   1.269       .  A
C71          O84   1.269       .  A
C71         C278   1.405       .  S
O72          C85   1.271       .  A
O72         Cd79   2.071       .  S
O73          C91   1.274       .  A
O73         Cd82   2.069       .  S
O74          C88   1.272       .  A
O74         Cd78   2.073       .  S
O75          C86   1.274       .  A
O75         Cd78   2.071       .  S
Zn76         O87   1.972       .  S
Zn76         O89   2.020       .  S
Zn76         O81   1.936       .  S
O77          C88   1.272       .  A
O77         Cd82   2.070       .  S
Cd78         O80   2.033       .  S
Cd78         O81   1.993       .  S
Cd79         O83   2.032       .  S
Cd79         O92   2.068       .  S
Cd79         O81   1.992       .  S
O80          C90   1.270       .  A
O81         Cd82   1.994       .  S
Cd82         O84   2.029       .  S
O83          C90   1.270       .  A
C85          O89   1.271       .  A
C85         C302   1.437       .  S
C86         C248   1.483       .  S
C88         C304   1.436       .  S
C90         C280   1.406       .  S
C91          O92   1.274       .  A
C91         C238   1.483       .  S
N93          C98   1.361       .  A
N93          C97   1.352       .  A
N93         H125   1.040       .  S
N94         C101   1.352       .  A
N94         C102   1.358       .  A
N95         C100   1.352       .  A
N95          C99   1.362       .  A
N95         H126   1.040       .  S
N96         C103   1.360       .  A
N96         C104   1.353       .  A
C97         C105   1.389       .  A
C97         C445   1.422   1_554  A
C98         C114   1.419   1_565  A
C98         C106   1.384       .  A
C99         C107   1.384       .  A
C99         C116   1.421       .  A
C100        C115   1.424       .  A
C100        C108   1.390       .  A
C101        C113   1.420       .  A
C101        C109   1.389       .  A
C102        C116   1.416   1_565  A
C102        C110   1.382       .  A
C103        C111   1.382       .  A
C103        C114   1.418       .  A
C104        C112   1.389       .  A
C104        C447   1.424       .  A
C105        C106   1.377       .  A
C105        H117   1.082       .  S
C106        H118   1.081       .  S
C107        C108   1.379       .  A
C107        H119   1.080       .  S
C108        H120   1.082       .  S
C109        C110   1.373       .  A
C109        H121   1.082       .  S
C110        H122   1.080       .  S
C111        C112   1.375       .  A
C111        H123   1.080       .  S
C112        H124   1.082       .  S
C113        C651   1.489       .  S
C113        C429   1.422       .  A
C114        C235   1.481       .  S
C115        C309   1.490       .  S
C115        C436   1.424       .  A
C116        C233   1.480       .  S
N127        C132   1.353   1_455  A
N127        C131   1.363   1_455  A
N127        H159   1.038       .  S
N128        C135   1.358   1_655  A
N128        C136   1.352   1_655  A
N129        C134   1.362   1_455  A
N129        C133   1.353   1_455  A
N129        H160   1.038       .  S
N130        C137   1.353   1_655  A
N130        C138   1.360   1_655  A
C131        C139   1.384       .  A
C131        C147   1.423   1_665  A
C132        C148   1.425       .  A
C132        C140   1.390       .  A
C133        C141   1.389       .  A
C133        C150   1.423   1_655  A
C134        C149   1.421   1_645  A
C134        C142   1.384       .  A
C135        C147   1.417       .  A
C135        C143   1.383       .  A
C136        C150   1.421       .  A
C136        C144   1.389       .  A
C137        C145   1.390       .  A
C137        C148   1.425   1_455  A
C138        C146   1.383       .  A
C138        C149   1.419       .  A
C139        C140   1.377       .  A
C139        H151   1.080       .  S
C140        H152   1.082       .  S
C141        C142   1.375       .  A
C141        H153   1.082       .  S
C142        H154   1.080       .  S
C143        C144   1.373       .  A
C143        H155   1.080       .  S
C144        H156   1.082       .  S
C145        C146   1.374       .  A
C145        H157   1.082       .  S
C146        H158   1.081       .  S
C147        C234   1.481       .  S
C148        C292   1.489       .  S
C149        C236   1.482   1_565  S
C150        C285   1.487   1_455  S
N161        C166   1.362       .  A
N161        C165   1.352       .  A
N161        H193   1.040       .  S
N162        C169   1.353       .  A
N162        C170   1.360       .  A
N163        C168   1.353       .  A
N163        C167   1.361       .  A
N163        H194   1.041       .  S
N164        C171   1.359       .  A
N164        C172   1.352       .  A
C165        C173   1.391       .  A
C165        C513   1.425       .  A
C166        C182   1.421       .  A
C166        C174   1.385       .  A
C167        C175   1.385       .  A
C167        C184   1.420   1_545  A
C168        C183   1.425       .  A
C168        C176   1.390       .  A
C169        C181   1.425       .  A
C169        C177   1.390       .  A
C170        C184   1.419       .  A
C170        C178   1.383       .  A
C171        C179   1.383       .  A
C171        C182   1.417   1_545  A
C172        C180   1.390       .  A
C172        C515   1.423       .  A
C173        C174   1.379       .  A
C173        H185   1.082       .  S
C174        H186   1.083       .  S
C175        C176   1.379       .  A
C175        H187   1.082       .  S
C176        H188   1.082       .  S
C177        C178   1.376       .  A
C177        H189   1.082       .  S
C178        H190   1.082       .  S
C179        C180   1.376       .  A
C179        H191   1.082       .  S
C180        H192   1.082       .  S
C181        C271   1.490       .  S
C181        C497   1.425   1_554  A
C182        C229   1.480       .  S
C183        C593   1.492       .  S
C183        C504   1.423   1_554  A
C184        C231   1.482       .  S
N195        C200   1.354       .  A
N195        C199   1.362       .  A
N195        H227   1.039       .  S
N196        C203   1.359       .  A
N196        C204   1.352       .  A
N197        C202   1.362       .  A
N197        C201   1.353       .  A
N197        H228   1.039       .  S
N198        C205   1.352       .  A
N198        C206   1.360       .  A
C199        C207   1.385       .  A
C199        C215   1.422       .  A
C200        C216   1.426       .  A
C200        C208   1.390       .  A
C201        C209   1.390       .  A
C201        C218   1.425       .  A
C202        C217   1.421   1_545  A
C202        C210   1.384       .  A
C203        C215   1.419   1_545  A
C203        C211   1.384       .  A
C204        C218   1.423       .  A
C204        C212   1.390       .  A
C205        C213   1.390       .  A
C205        C216   1.424       .  A
C206        C214   1.383       .  A
C206        C217   1.418       .  A
C207        C208   1.378       .  A
C207        H219   1.083       .  S
C208        H220   1.082       .  S
C209        C210   1.379       .  A
C209        H221   1.082       .  S
C210        H222   1.082       .  S
C211        C212   1.376       .  A
C211        H223   1.083       .  S
C212        H224   1.082       .  S
C213        C214   1.375       .  A
C213        H225   1.082       .  S
C214        H226   1.082       .  S
C215        C230   1.481       .  S
C216        C251   1.491       .  S
C217        C232   1.482       .  S
C218        C241   1.489       .  S
C229        C230   1.226       .  T
C231        C232   1.227       .  T
C233        C898   1.226       .  T
C234        C897   1.226       .  T
C235        C900   1.226       .  T
C236        C899   1.226       .  T
C237        C238   1.407       .  A
C237        C242   1.399       .  A
C237        H243   1.083       .  S
C238        C239   1.407       .  A
C239        C240   1.397       .  A
C239        H244   1.083       .  S
C240        C241   1.403       .  A
C240        H245   1.083       .  S
C241        C242   1.404       .  A
C242        H246   1.083       .  S
C247        C248   1.406       .  A
C247        C252   1.398       .  A
C247        H253   1.083       .  S
C248        C249   1.408       .  A
C249        C250   1.398       .  A
C249        H254   1.083       .  S
C250        C251   1.403       .  A
C250        H255   1.083       .  S
C251        C252   1.404       .  A
C252        H256   1.083       .  S
C257        C262   1.398       .  A
C257        C590   1.407       .  A
C257        H263   1.083       .  S
C258        C259   1.406       .  A
C258        C589   1.407       .  A
C259        C260   1.398       .  A
C259        H264   1.083       .  S
C260        C261   1.405       .  A
C260        H265   1.083       .  S
C261        C515   1.492       .  S
C261        C594   1.404       .  A
C262        C593   1.404       .  A
C262        H266   1.083       .  S
C267        C272   1.398       .  A
C267        C600   1.407       .  A
C267        H273   1.083       .  S
C268        C269   1.407   1_554  A
C268        C599   1.407       .  A
C269        C270   1.398       .  A
C269        H274   1.083       .  S
C270        C271   1.404   1_556  A
C270        H275   1.083       .  S
C271        C604   1.403       .  A
C272        C603   1.403       .  A
C272        H276   1.083       .  S
C277        C278   1.188       .  T
C279        C280   1.189       .  T
C281        C286   1.397       .  A
C281        C946   1.407   1_455  A
C281        H287   1.083       .  S
C282        C283   1.407       .  A
C282        C945   1.407       .  A
C283        C284   1.397       .  A
C283        H288   1.083       .  S
C284        C949   1.403       .  A
C284        H289   1.083       .  S
C285        C286   1.402   1_655  A
C285        C948   1.403       .  A
C286        H290   1.083       .  S
C291        C292   1.403   1_455  A
C291        C296   1.398       .  A
C291        H297   1.083       .  S
C292        C957   1.403       .  A
C293        C294   1.398       .  A
C293        C956   1.403       .  A
C293        H298   1.083       .  S
C294        C959   1.407       .  A
C294        H299   1.083       .  S
C295        C296   1.407   1_655  A
C295        C958   1.407       .  A
C296        H300   1.083       .  S
C301        C302   1.207       .  T
C303        C304   1.206       .  T
C305        C310   1.397       .  A
C305        C970   1.407       .  A
C305        H311   1.083       .  S
C306        C969   1.407       .  A
C306        C639   1.407       .  A
C307        C308   1.399       .  A
C307        C638   1.407       .  A
C307        H312   1.083       .  S
C308        C641   1.404       .  A
C308        H313   1.083       .  S
C309        C640   1.404       .  A
C309        C974   1.403       .  A
C310        C973   1.403       .  A
C310        H314   1.083       .  S
C315        C320   1.397       .  A
C315        C980   1.407       .  A
C315        H321   1.083       .  S
C316        C979   1.407   1_455  A
C316        C649   1.407   1_554  A
C317        C318   1.397       .  A
C317        C648   1.407       .  A
C317        H322   1.083       .  S
C318       C1315   1.404       .  A
C318        H323   1.083       .  S
C319        C445   1.489   1_554  S
C319        C320   1.403       .  A
C319       C1314   1.404   1_554  A
C320        H324   1.083       .  S
C325        C658   1.207       .  T
C326        C657   1.207       .  T
C327        C660   1.206       .  T
C328        C659   1.206       .  T
C329        C994   1.190       .  T
C330        C993   1.190       .  T
C331        C996   1.188       .  T
C332        C995   1.188       .  T
O333        C349   1.270       .  A
O333       Zn339   1.978       .  S
C334        O350   1.274       .  A
C334        O679   1.272   1_556  A
C334        C638   1.483       .  S
O335       Cd342   2.063       .  S
O336        C354   1.269   1_455  A
O336       Cd345   2.028       .  S
O337       Cd341   2.070       .  S
O338       C1013   1.270       .  A
O338       Cd341   2.033       .  S
Zn339       O350   2.025       .  S
Zn339       O352   2.029       .  S
Zn339       O344   1.939       .  S
O340        C351   1.272       .  A
O340       Cd345   2.070       .  S
Cd341       O343   2.071       .  S
Cd341      O1008   1.994       .  S
Cd342       O346   2.067       .  S
Cd342       O355   2.031       .  S
O344      Cd1005   1.994       .  S
O344       Cd677   1.990   1_556  S
Cd345       O347   2.060       .  S
Cd345       O676   1.990       .  S
O346       C1017   1.274       .  A
O347        C666   1.272       .  A
C348        O352   1.273       .  A
C348        C657   1.437       .  S
C349       O1002   1.270       .  A
C349        C662   1.408       .  S
C351        C660   1.436       .  S
C353       O1010   1.274   1_455  A
C353        C648   1.482       .  S
C354       O1019   1.269       .  A
C354        C664   1.404       .  S
O355       C1018   1.269       .  A
O356        C372   1.274   1_455  A
O356       Zn362   2.023       .  S
C357        O373   1.269       .  A
C357       O1034   1.271   1_455  A
C357        C661   1.407       .  S
O358        C371   1.271       .  A
O358       Cd365   2.066       .  S
O359        C377   1.274       .  A
O359       Cd368   2.069       .  S
O360        C374   1.272       .  A
O360       Cd364   2.067       .  S
O361       C1036   1.273       .  A
O361       Cd364   2.065       .  S
Zn362       O373   1.976       .  S
Zn362       O375   2.019       .  S
Zn362       O367   1.938   1_455  S
O363        C374   1.273       .  A
O363       Cd368   2.075       .  S
Cd364       O366   2.029       .  S
Cd364      O1031   1.991       .  S
Cd365       O369   2.031       .  S
Cd365       O378   2.065       .  S
Cd365       O367   1.992   1_455  S
O366        C376   1.269       .  A
O367      Cd1028   1.991       .  S
O367      Cd1032   1.992       .  S
Cd368       O370   2.035       .  S
Cd368      O1031   1.992       .  S
O369       C1040   1.270   1_455  A
O370       C1021   1.271       .  A
C371        O375   1.271       .  A
C371        C635   1.436       .  S
C372       O1025   1.273       .  A
C372        C627   1.483       .  S
C374        C633   1.437       .  S
C376       O1033   1.270       .  A
C376        C663   1.404       .  S
C377       O1042   1.273       .  A
C377        C614   1.481       .  S
O378       C1041   1.273   1_455  A
O379        C395   1.274       .  A
O379       Zn385   2.016       .  S
C380        O396   1.269       .  A
C380        O393   1.269       .  A
C380        C611   1.406       .  S
O381       Cd388   2.071       .  S
O382       Cd391   2.064       .  S
O383        C397   1.271   1_556  A
O383       Cd387   2.069       .  S
O384       Cd387   2.067       .  S
Zn385       O396   1.977       .  S
Zn385       O398   2.023       .  S
Zn385       O390   1.937       .  S
O386       Cd391   2.073       .  S
Cd387       O389   2.028       .  S
Cd388       O392   2.035       .  S
Cd388       O401   2.072       .  S
O389        C399   1.269       .  A
O390       Cd391   1.992       .  S
Cd391       O393   2.027       .  S
O392        C399   1.270       .  A
C394        O398   1.272       .  A
C394        C658   1.437       .  S
C395        C600   1.483       .  S
C397        C659   1.436       .  S
C399        C609   1.405       .  S
C400        O401   1.275   1_554  A
C400        C590   1.483       .  S
O402        C418   1.273       .  A
O402       Zn408   2.015       .  S
C403        O419   1.269       .  A
C403        O416   1.269       .  A
C403        C610   1.405       .  S
O404        C417   1.271       .  A
O404       Cd411   2.071       .  S
O405        C423   1.274       .  A
O405       Cd414   2.069       .  S
O406        C420   1.272       .  A
O406       Cd410   2.073       .  S
O407        C418   1.274       .  A
O407       Cd410   2.071       .  S
Zn408       O419   1.972       .  S
Zn408       O421   2.020       .  S
Zn408       O413   1.936       .  S
O409        C420   1.272       .  A
O409       Cd414   2.070       .  S
Cd410       O412   2.033       .  S
Cd410       O413   1.993       .  S
Cd411       O415   2.032       .  S
Cd411       O424   2.068       .  S
Cd411       O413   1.992       .  S
O412        C422   1.270       .  A
O413       Cd414   1.994       .  S
Cd414       O416   2.029       .  S
O415        C422   1.270       .  A
C417        O421   1.271       .  A
C417        C634   1.437       .  S
C418        C580   1.483       .  S
C420        C636   1.436       .  S
C422        C612   1.406       .  S
C423        O424   1.274       .  A
C423        C570   1.483       .  S
N425        C430   1.361       .  A
N425        C429   1.352       .  A
N425        H457   1.040       .  S
N426        C433   1.352       .  A
N426        C434   1.358       .  A
N427        C432   1.352       .  A
N427        C431   1.362       .  A
N427        H458   1.040       .  S
N428        C435   1.360       .  A
N428        C436   1.353       .  A
C429        C437   1.389       .  A
C430        C446   1.419   1_565  A
C430        C438   1.384       .  A
C431        C439   1.384       .  A
C431        C448   1.421       .  A
C432        C447   1.424   1_556  A
C432        C440   1.390       .  A
C433        C445   1.420       .  A
C433        C441   1.389       .  A
C434        C448   1.416   1_565  A
C434        C442   1.382       .  A
C435        C443   1.382       .  A
C435        C446   1.418       .  A
C436        C444   1.389       .  A
C437        C438   1.377       .  A
C437        H449   1.082       .  S
C438        H450   1.081       .  S
C439        C440   1.379       .  A
C439        H451   1.080       .  S
C440        H452   1.082       .  S
C441        C442   1.373       .  A
C441        H453   1.082       .  S
C442        H454   1.080       .  S
C443        C444   1.375       .  A
C443        H455   1.080       .  S
C444        H456   1.082       .  S
C446        C567   1.481       .  S
C447        C641   1.490   1_554  S
C448        C565   1.480       .  S
N459        C464   1.353   1_455  A
N459        C463   1.363   1_455  A
N459        H491   1.038       .  S
N460        C467   1.358   1_655  A
N460        C468   1.352   1_655  A
N461        C466   1.362   1_455  A
N461        C465   1.353   1_455  A
N461        H492   1.038       .  S
N462        C469   1.353   1_655  A
N462        C470   1.360   1_655  A
C463        C471   1.384       .  A
C463        C479   1.423   1_665  A
C464        C480   1.425       .  A
C464        C472   1.390       .  A
C465        C473   1.389       .  A
C465        C482   1.423   1_655  A
C466        C481   1.421   1_645  A
C466        C474   1.384       .  A
C467        C479   1.417       .  A
C467        C475   1.383       .  A
C468        C482   1.421       .  A
C468        C476   1.389       .  A
C469        C477   1.390       .  A
C469        C480   1.425   1_455  A
C470        C478   1.383       .  A
C470        C481   1.419       .  A
C471        C472   1.377       .  A
C471        H483   1.080       .  S
C472        H484   1.082       .  S
C473        C474   1.375       .  A
C473        H485   1.082       .  S
C474        H486   1.080       .  S
C475        C476   1.373       .  A
C475        H487   1.080       .  S
C476        H488   1.082       .  S
C477        C478   1.374       .  A
C477        H489   1.082       .  S
C478        H490   1.081       .  S
C479        C566   1.481       .  S
C480        C624   1.489       .  S
C481        C568   1.482   1_565  S
C482        C617   1.487   1_455  S
N493        C498   1.362       .  A
N493        C497   1.352       .  A
N493        H525   1.040       .  S
N494        C501   1.353       .  A
N494        C502   1.360       .  A
N495        C500   1.353       .  A
N495        C499   1.361       .  A
N495        H526   1.041       .  S
N496        C503   1.359       .  A
N496        C504   1.352       .  A
C497        C505   1.391       .  A
C498        C514   1.421       .  A
C498        C506   1.385       .  A
C499        C507   1.385       .  A
C499        C516   1.420   1_545  A
C500        C515   1.425       .  A
C500        C508   1.390       .  A
C501        C513   1.425       .  A
C501        C509   1.390       .  A
C502        C516   1.419       .  A
C502        C510   1.383       .  A
C503        C511   1.383       .  A
C503        C514   1.417   1_545  A
C504        C512   1.390       .  A
C505        C506   1.379       .  A
C505        H517   1.082       .  S
C506        H518   1.083       .  S
C507        C508   1.379       .  A
C507        H519   1.082       .  S
C508        H520   1.082       .  S
C509        C510   1.376       .  A
C509        H521   1.082       .  S
C510        H522   1.082       .  S
C511        C512   1.376       .  A
C511        H523   1.082       .  S
C512        H524   1.082       .  S
C513        C603   1.490       .  S
C514        C561   1.480       .  S
C516        C563   1.482       .  S
N527        C532   1.354       .  A
N527        C531   1.362       .  A
N527        H559   1.039       .  S
N528        C535   1.359       .  A
N528        C536   1.352       .  A
N529        C534   1.362       .  A
N529        C533   1.353       .  A
N529        H560   1.039       .  S
N530        C537   1.352       .  A
N530        C538   1.360       .  A
C531        C539   1.385       .  A
C531        C547   1.422       .  A
C532        C548   1.426       .  A
C532        C540   1.390       .  A
C533        C541   1.390       .  A
C533        C550   1.425       .  A
C534        C549   1.421   1_545  A
C534        C542   1.384       .  A
C535        C547   1.419   1_545  A
C535        C543   1.384       .  A
C536        C550   1.423       .  A
C536        C544   1.390       .  A
C537        C545   1.390       .  A
C537        C548   1.424       .  A
C538        C546   1.383       .  A
C538        C549   1.418       .  A
C539        C540   1.378       .  A
C539        H551   1.083       .  S
C540        H552   1.082       .  S
C541        C542   1.379       .  A
C541        H553   1.082       .  S
C542        H554   1.082       .  S
C543        C544   1.376       .  A
C543        H555   1.083       .  S
C544        H556   1.082       .  S
C545        C546   1.375       .  A
C545        H557   1.082       .  S
C546        H558   1.082       .  S
C547        C562   1.481       .  S
C548        C583   1.491       .  S
C549        C564   1.482       .  S
C550        C573   1.489       .  S
C561        C562   1.226       .  T
C563        C564   1.227       .  T
C565       C1230   1.226       .  T
C566       C1229   1.226       .  T
C567       C1232   1.226       .  T
C568       C1231   1.226       .  T
C569        C570   1.407       .  A
C569        C574   1.399       .  A
C569        H575   1.083       .  S
C570        C571   1.407       .  A
C571        C572   1.397       .  A
C571        H576   1.083       .  S
C572        C573   1.403       .  A
C572        H577   1.083       .  S
C573        C574   1.404       .  A
C574        H578   1.083       .  S
C579        C580   1.406       .  A
C579        C584   1.398       .  A
C579        H585   1.083       .  S
C580        C581   1.408       .  A
C581        C582   1.398       .  A
C581        H586   1.083       .  S
C582        C583   1.403       .  A
C582        H587   1.083       .  S
C583        C584   1.404       .  A
C584        H588   1.083       .  S
C589        C594   1.398       .  A
C589        H595   1.083       .  S
C590        C591   1.406   1_554  A
C591        C592   1.398       .  A
C591        H596   1.083       .  S
C592        C593   1.405   1_556  A
C592        H597   1.083       .  S
C594        H598   1.083       .  S
C599        C604   1.398       .  A
C599        H605   1.083       .  S
C600        C601   1.407       .  A
C601        C602   1.398       .  A
C601        H606   1.083       .  S
C602        C603   1.404       .  A
C602        H607   1.083       .  S
C604        H608   1.083       .  S
C609        C610   1.188       .  T
C611        C612   1.189       .  T
C613       C1278   1.407   1_455  A
C613        C618   1.397       .  A
C613        H619   1.083       .  S
C614       C1277   1.407       .  A
C614        C615   1.407       .  A
C615        C616   1.397       .  A
C615        H620   1.083       .  S
C616       C1281   1.403       .  A
C616        H621   1.083       .  S
C617       C1280   1.403       .  A
C617        C618   1.402   1_655  A
C618        H622   1.083       .  S
C623        C624   1.403   1_455  A
C623        C628   1.398       .  A
C623        H629   1.083       .  S
C624       C1289   1.403       .  A
C625       C1288   1.403       .  A
C625        C626   1.398       .  A
C625        H630   1.083       .  S
C626       C1291   1.407       .  A
C626        H631   1.083       .  S
C627       C1290   1.407       .  A
C627        C628   1.407   1_655  A
C628        H632   1.083       .  S
C633        C634   1.207       .  T
C635        C636   1.206       .  T
C637       C1302   1.407   1_554  A
C637        C642   1.397       .  A
C637        H643   1.083       .  S
C638       C1301   1.407   1_556  A
C639        C640   1.399       .  A
C639        H644   1.083       .  S
C640        H645   1.083       .  S
C641       C1306   1.403   1_556  A
C642       C1305   1.403   1_554  A
C642        H646   1.083       .  S
C647       C1312   1.407       .  A
C647        C652   1.397       .  A
C647        H653   1.083       .  S
C648       C1311   1.407   1_455  A
C649        C650   1.397       .  A
C649        H654   1.083       .  S
C650        C983   1.404   1_556  A
C650        H655   1.083       .  S
C651        C982   1.404       .  A
C651        C652   1.403       .  A
C652        H656   1.083       .  S
C661       C1326   1.190       .  T
C662       C1325   1.190       .  T
C663       C1328   1.188       .  T
C664       C1327   1.188       .  T
O665        C681   1.270   1_655  A
O665       Zn671   1.978       .  S
C666        O682   1.274   1_455  A
C666        C970   1.483       .  S
O667       C1012   1.271   1_554  A
O667       Cd674   2.063       .  S
O668        C686   1.269       .  A
O668       Cd677   2.028       .  S
O669       C1015   1.272       .  A
O669       Cd673   2.070       .  S
O670       Cd673   2.033       .  S
Zn671       O682   2.025       .  S
Zn671       O684   2.029       .  S
Zn671       O676   1.939   1_655  S
O672        C683   1.272       .  A
O672       Cd677   2.070       .  S
Cd673       O675   2.071       .  S
Cd674       O678   2.067       .  S
Cd674       O687   2.031       .  S
Cd674      O1008   1.992   1_654  S
O675       C1017   1.274       .  A
O676      Cd1006   1.992   1_455  S
Cd677       O679   2.060       .  S
C680        O999   1.271       .  A
C680        O684   1.273       .  A
C680        C989   1.437       .  S
C681        C994   1.408       .  S
C683       O1001   1.272   1_554  A
C683        C992   1.436       .  S
C685       O1007   1.274       .  A
C685        C980   1.482   1_556  S
C686        C996   1.404       .  S
O688        C704   1.274       .  A
O688       Zn694   2.023       .  S
C689        O705   1.269       .  A
C689        C993   1.407       .  S
O690        C703   1.271       .  A
O690       Cd697   2.066       .  S
O691        C709   1.274       .  A
O691       Cd700   2.069       .  S
O692        C706   1.272       .  A
O692       Cd696   2.067       .  S
O693       Cd696   2.065       .  S
Zn694       O705   1.976       .  S
Zn694       O707   2.019       .  S
Zn694       O699   1.938       .  S
O695        C706   1.273       .  A
O695       Cd700   2.075       .  S
Cd696       O698   2.029       .  S
Cd697       O701   2.031       .  S
Cd697       O710   2.065       .  S
Cd697       O699   1.992       .  S
O698        C708   1.269       .  A
Cd700       O702   2.035       .  S
C703        O707   1.271       .  A
C703        C967   1.436       .  S
C704        C959   1.483       .  S
C706        C965   1.437       .  S
C708        C995   1.404       .  S
C709        C946   1.481       .  S
O711        C727   1.274   1_554  A
O711       Zn717   2.016       .  S
C712        O728   1.269       .  A
C712        O725   1.269       .  A
C712        C943   1.406       .  S
O713       C1058   1.272       .  A
O713       Cd720   2.071       .  S
O714       C1064   1.274       .  A
O714       Cd723   2.064       .  S
O715        C729   1.271       .  A
O715       Cd719   2.069       .  S
O716       C1059   1.274       .  A
O716       Cd719   2.067       .  S
Zn717       O728   1.977       .  S
Zn717       O730   2.023       .  S
Zn717       O722   1.937   1_554  S
O718       C1061   1.272       .  A
O718       Cd723   2.073       .  S
Cd719       O721   2.028       .  S
Cd719      O1054   1.991       .  S
Cd720       O724   2.035       .  S
Cd720       O733   2.072       .  S
Cd720      O1054   1.994       .  S
O721        C731   1.269       .  A
O722      Cd1051   1.991       .  S
O722      Cd1052   1.994       .  S
O722       Cd723   1.992   1_556  S
Cd723       O725   2.027       .  S
O724        C731   1.270       .  A
C726       O1045   1.272       .  A
C726        O730   1.272   1_556  A
C726        C990   1.437       .  S
C727       O1048   1.274       .  A
C727        C932   1.483   1_556  S
C729       O1050   1.272       .  A
C729        C991   1.436       .  S
C731        C941   1.405       .  S
C732       O1046   1.274       .  A
C732        O733   1.275       .  A
C732        C922   1.483       .  S
O734        C750   1.273       .  A
O734       Zn740   2.015       .  S
C735        O751   1.269       .  A
C735        O748   1.269       .  A
C735        C942   1.405       .  S
O736        C749   1.271       .  A
O736       Cd743   2.071       .  S
O737        C755   1.274       .  A
O737       Cd746   2.069       .  S
O738        C752   1.272       .  A
O738       Cd742   2.073       .  S
O739        C750   1.274       .  A
O739       Cd742   2.071       .  S
Zn740       O751   1.972       .  S
Zn740       O753   2.020       .  S
Zn740       O745   1.936       .  S
O741        C752   1.272       .  A
O741       Cd746   2.070       .  S
Cd742       O744   2.033       .  S
Cd742       O745   1.993       .  S
Cd743       O747   2.032       .  S
Cd743       O756   2.068       .  S
Cd743       O745   1.992       .  S
O744        C754   1.270       .  A
O745       Cd746   1.994       .  S
Cd746       O748   2.029       .  S
O747        C754   1.270       .  A
C749        O753   1.271       .  A
C749        C966   1.437       .  S
C750        C912   1.483       .  S
C752        C968   1.436       .  S
C754        C944   1.406       .  S
C755        O756   1.274       .  A
C755        C902   1.483       .  S
N757        C762   1.361   1_655  A
N757        C761   1.352   1_655  A
N757        H789   1.040       .  S
N758        C765   1.352   1_455  A
N758        C766   1.358   1_455  A
N759        C764   1.352   1_655  A
N759        C763   1.362   1_655  A
N759        H790   1.040       .  S
N760        C767   1.360   1_455  A
N760        C768   1.353   1_455  A
C761        C769   1.389       .  A
C761       C1109   1.422   1_554  A
C762        C778   1.419   1_565  A
C762        C770   1.384       .  A
C763        C771   1.384       .  A
C763        C780   1.421       .  A
C764        C779   1.424       .  A
C764        C772   1.390       .  A
C765        C777   1.420   1_655  A
C765        C773   1.389       .  A
C766        C780   1.416   1_665  A
C766        C774   1.382       .  A
C767        C775   1.382       .  A
C767        C778   1.418   1_655  A
C768        C776   1.389       .  A
C768       C1111   1.424   1_655  A
C769        C770   1.377       .  A
C769        H781   1.082       .  S
C770        H782   1.081       .  S
C771        C772   1.379       .  A
C771        H783   1.080       .  S
C772        H784   1.082       .  S
C773        C774   1.373       .  A
C773        H785   1.082       .  S
C774        H786   1.080       .  S
C775        C776   1.375       .  A
C775        H787   1.080       .  S
C776        H788   1.082       .  S
C777       C1315   1.489       .  S
C777       C1093   1.422       .  A
C778        C899   1.481       .  S
C779        C973   1.490       .  S
C779       C1100   1.424   1_455  A
C780        C897   1.480       .  S
N791        C796   1.353       .  A
N791        C795   1.363       .  A
N791        H823   1.038       .  S
N792        C799   1.358       .  A
N792        C800   1.352       .  A
N793        C798   1.362       .  A
N793        C797   1.353       .  A
N793        H824   1.038       .  S
N794        C801   1.353       .  A
N794        C802   1.360       .  A
C795        C803   1.384       .  A
C795        C811   1.423   1_565  A
C796        C812   1.425       .  A
C796        C804   1.390       .  A
C797        C805   1.389       .  A
C797        C814   1.423       .  A
C798        C813   1.421   1_545  A
C798        C806   1.384       .  A
C799        C811   1.417       .  A
C799        C807   1.383       .  A
C800        C814   1.421       .  A
C800        C808   1.389       .  A
C801        C809   1.390       .  A
C801        C812   1.425       .  A
C802        C810   1.383       .  A
C802        C813   1.419       .  A
C803        C804   1.377       .  A
C803        H815   1.080       .  S
C804        H816   1.082       .  S
C805        C806   1.375       .  A
C805        H817   1.082       .  S
C806        H818   1.080       .  S
C807        C808   1.373       .  A
C807        H819   1.080       .  S
C808        H820   1.082       .  S
C809        C810   1.374       .  A
C809        H821   1.082       .  S
C810        H822   1.081       .  S
C811        C898   1.481       .  S
C812        C956   1.489       .  S
C813        C900   1.482   1_565  S
C814        C949   1.487       .  S
N825        C830   1.362       .  A
N825        C829   1.352       .  A
N825        H857   1.040       .  S
N826        C833   1.353       .  A
N826        C834   1.360       .  A
N827        C832   1.353       .  A
N827        C831   1.361       .  A
N827        H858   1.041       .  S
N828        C835   1.359       .  A
N828        C836   1.352       .  A
C829        C837   1.391       .  A
C829       C1177   1.425       .  A
C830        C846   1.421       .  A
C830        C838   1.385       .  A
C831        C839   1.385       .  A
C831        C848   1.420   1_545  A
C832        C847   1.425       .  A
C832        C840   1.390       .  A
C833        C845   1.425       .  A
C833        C841   1.390       .  A
C834        C848   1.419       .  A
C834        C842   1.383       .  A
C835        C843   1.383       .  A
C835        C846   1.417   1_545  A
C836        C844   1.390       .  A
C836       C1179   1.423       .  A
C837        C838   1.379       .  A
C837        H849   1.082       .  S
C838        H850   1.083       .  S
C839        C840   1.379       .  A
C839        H851   1.082       .  S
C840        H852   1.082       .  S
C841        C842   1.376       .  A
C841        H853   1.082       .  S
C842        H854   1.082       .  S
C843        C844   1.376       .  A
C843        H855   1.082       .  S
C844        H856   1.082       .  S
C845        C935   1.490       .  S
C845       C1161   1.425   1_554  A
C846        C893   1.480       .  S
C847       C1257   1.492       .  S
C847       C1168   1.423   1_554  A
C848        C895   1.482       .  S
N859        C864   1.354       .  A
N859        C863   1.362       .  A
N859        H891   1.039       .  S
N860        C867   1.359       .  A
N860        C868   1.352       .  A
N861        C866   1.362       .  A
N861        C865   1.353       .  A
N861        H892   1.039       .  S
N862        C869   1.352       .  A
N862        C870   1.360       .  A
C863        C871   1.385       .  A
C863        C879   1.422       .  A
C864        C880   1.426       .  A
C864        C872   1.390       .  A
C865        C873   1.390       .  A
C865        C882   1.425       .  A
C866        C881   1.421   1_545  A
C866        C874   1.384       .  A
C867        C879   1.419   1_545  A
C867        C875   1.384       .  A
C868        C882   1.423       .  A
C868        C876   1.390       .  A
C869        C877   1.390       .  A
C869        C880   1.424       .  A
C870        C878   1.383       .  A
C870        C881   1.418       .  A
C871        C872   1.378       .  A
C871        H883   1.083       .  S
C872        H884   1.082       .  S
C873        C874   1.379       .  A
C873        H885   1.082       .  S
C874        H886   1.082       .  S
C875        C876   1.376       .  A
C875        H887   1.083       .  S
C876        H888   1.082       .  S
C877        C878   1.375       .  A
C877        H889   1.082       .  S
C878        H890   1.082       .  S
C879        C894   1.481       .  S
C880        C915   1.491       .  S
C881        C896   1.482       .  S
C882        C905   1.489       .  S
C893        C894   1.226       .  T
C895        C896   1.227       .  T
C901        C902   1.407       .  A
C901        C906   1.399       .  A
C901        H907   1.083       .  S
C902        C903   1.407       .  A
C903        C904   1.397       .  A
C903        H908   1.083       .  S
C904        C905   1.403       .  A
C904        H909   1.083       .  S
C905        C906   1.404       .  A
C906        H910   1.083       .  S
C911        C912   1.406       .  A
C911        C916   1.398       .  A
C911        H917   1.083       .  S
C912        C913   1.408       .  A
C913        C914   1.398       .  A
C913        H918   1.083       .  S
C914        C915   1.403       .  A
C914        H919   1.083       .  S
C915        C916   1.404       .  A
C916        H920   1.083       .  S
C921       C1254   1.407       .  A
C921        C926   1.398       .  A
C921        H927   1.083       .  S
C922       C1253   1.407       .  A
C922        C923   1.406       .  A
C923        C924   1.398       .  A
C923        H928   1.083       .  S
C924        C925   1.405       .  A
C924        H929   1.083       .  S
C925       C1179   1.492       .  S
C925       C1258   1.404       .  A
C926       C1257   1.404       .  A
C926        H930   1.083       .  S
C931       C1264   1.407       .  A
C931        C936   1.398       .  A
C931        H937   1.083       .  S
C932       C1263   1.407       .  A
C932        C933   1.407   1_554  A
C933        C934   1.398       .  A
C933        H938   1.083       .  S
C934        C935   1.404   1_556  A
C934        H939   1.083       .  S
C935       C1268   1.403       .  A
C936       C1267   1.403       .  A
C936        H940   1.083       .  S
C941        C942   1.188       .  T
C943        C944   1.189       .  T
C945        C950   1.397       .  A
C945        H951   1.083       .  S
C946        C947   1.407       .  A
C947        C948   1.397       .  A
C947        H952   1.083       .  S
C948        H953   1.083       .  S
C949        C950   1.402       .  A
C950        H954   1.083       .  S
C955        C956   1.403       .  A
C955        C960   1.398       .  A
C955        H961   1.083       .  S
C957        C958   1.398       .  A
C957        H962   1.083       .  S
C958        H963   1.083       .  S
C959        C960   1.407       .  A
C960        H964   1.083       .  S
C965        C966   1.207       .  T
C967        C968   1.206       .  T
C969        C974   1.397       .  A
C969        H975   1.083       .  S
C970       C1303   1.407   1_455  A
C971       C1302   1.407   1_655  A
C971        C972   1.399       .  A
C971        H976   1.083       .  S
C972       C1305   1.404   1_655  A
C972        H977   1.083       .  S
C973       C1304   1.404   1_455  A
C974        H978   1.083       .  S
C979        C984   1.397       .  A
C979        H985   1.083       .  S
C980       C1313   1.407   1_554  A
C981       C1312   1.407       .  A
C981        C982   1.397       .  A
C981        H986   1.083       .  S
C982        H987   1.083       .  S
C983       C1109   1.489   1_554  S
C983        C984   1.403   1_455  A
C984        H988   1.083       .  S
C989       C1322   1.207       .  T
C990       C1321   1.207       .  T
C991       C1324   1.206       .  T
C992       C1323   1.206       .  T
O997       C1013   1.270   1_655  A
O997      Zn1003   1.978       .  S
C998       O1014   1.274   1_455  A
C998       C1302   1.483       .  S
O999      Cd1006   2.063       .  S
O1000      C1018   1.269       .  A
O1000     Cd1009   2.028       .  S
O1001     Cd1005   2.070       .  S
O1002     Cd1005   2.033       .  S
Zn1003     O1014   2.025       .  S
Zn1003     O1016   2.029       .  S
Zn1003     O1008   1.939   1_655  S
O1004      C1015   1.272       .  A
O1004     Cd1009   2.070       .  S
Cd1005     O1007   2.071       .  S
Cd1006     O1010   2.067       .  S
Cd1006     O1019   2.031       .  S
Cd1009     O1011   2.060       .  S
C1012      O1016   1.273       .  A
C1012      C1321   1.437       .  S
C1013      C1326   1.408       .  S
C1015      C1324   1.436       .  S
C1017      C1312   1.482       .  S
C1018      C1328   1.404       .  S
O1020      C1036   1.274       .  A
O1020     Zn1026   2.023       .  S
C1021      O1037   1.269       .  A
C1021      C1325   1.407       .  S
O1022      C1035   1.271       .  A
O1022     Cd1029   2.066       .  S
O1023      C1041   1.274       .  A
O1023     Cd1032   2.069       .  S
O1024      C1038   1.272       .  A
O1024     Cd1028   2.067       .  S
O1025     Cd1028   2.065       .  S
Zn1026     O1037   1.976       .  S
Zn1026     O1039   2.019       .  S
Zn1026     O1031   1.938       .  S
O1027      C1038   1.273       .  A
O1027     Cd1032   2.075       .  S
Cd1028     O1030   2.029       .  S
Cd1029     O1033   2.031       .  S
Cd1029     O1042   2.065       .  S
Cd1029     O1031   1.992       .  S
O1030      C1040   1.269       .  A
Cd1032     O1034   2.035       .  S
C1035      O1039   1.271       .  A
C1035      C1299   1.436       .  S
C1036      C1291   1.483       .  S
C1038      C1297   1.437       .  S
C1040      C1327   1.404       .  S
C1041      C1278   1.481       .  S
O1043      C1059   1.274       .  A
O1043     Zn1049   2.016       .  S
C1044      O1060   1.269       .  A
C1044      O1057   1.269       .  A
C1044      C1275   1.406       .  S
O1045     Cd1052   2.071       .  S
O1046     Cd1055   2.064       .  S
O1047      C1061   1.271   1_556  A
O1047     Cd1051   2.069       .  S
O1048     Cd1051   2.067       .  S
Zn1049     O1060   1.977       .  S
Zn1049     O1062   2.023       .  S
Zn1049     O1054   1.937       .  S
O1050     Cd1055   2.073       .  S
Cd1051     O1053   2.028       .  S
Cd1052     O1056   2.035       .  S
Cd1052     O1065   2.072       .  S
O1053      C1063   1.269       .  A
O1054     Cd1055   1.992       .  S
Cd1055     O1057   2.027       .  S
O1056      C1063   1.270       .  A
C1058      O1062   1.272       .  A
C1058      C1322   1.437       .  S
C1059      C1264   1.483       .  S
C1061      C1323   1.436       .  S
C1063      C1273   1.405       .  S
C1064      O1065   1.275   1_554  A
C1064      C1254   1.483       .  S
O1066      C1082   1.273       .  A
O1066     Zn1072   2.015       .  S
C1067      O1083   1.269       .  A
C1067      O1080   1.269       .  A
C1067      C1274   1.405       .  S
O1068      C1081   1.271       .  A
O1068     Cd1075   2.071       .  S
O1069      C1087   1.274       .  A
O1069     Cd1078   2.069       .  S
O1070      C1084   1.272       .  A
O1070     Cd1074   2.073       .  S
O1071      C1082   1.274       .  A
O1071     Cd1074   2.071       .  S
Zn1072     O1083   1.972       .  S
Zn1072     O1085   2.020       .  S
Zn1072     O1077   1.936       .  S
O1073      C1084   1.272       .  A
O1073     Cd1078   2.070       .  S
Cd1074     O1076   2.033       .  S
Cd1074     O1077   1.993       .  S
Cd1075     O1079   2.032       .  S
Cd1075     O1088   2.068       .  S
Cd1075     O1077   1.992       .  S
O1076      C1086   1.270       .  A
O1077     Cd1078   1.994       .  S
Cd1078     O1080   2.029       .  S
O1079      C1086   1.270       .  A
C1081      O1085   1.271       .  A
C1081      C1298   1.437       .  S
C1082      C1244   1.483       .  S
C1084      C1300   1.436       .  S
C1086      C1276   1.406       .  S
C1087      O1088   1.274       .  A
C1087      C1234   1.483       .  S
N1089      C1094   1.361   1_655  A
N1089      C1093   1.352   1_655  A
N1089      H1121   1.040       .  S
N1090      C1097   1.352   1_455  A
N1090      C1098   1.358   1_455  A
N1091      C1096   1.352   1_655  A
N1091      C1095   1.362   1_655  A
N1091      H1122   1.040       .  S
N1092      C1099   1.360   1_455  A
N1092      C1100   1.353   1_455  A
C1093      C1101   1.389       .  A
C1094      C1110   1.419   1_565  A
C1094      C1102   1.384       .  A
C1095      C1103   1.384       .  A
C1095      C1112   1.421       .  A
C1096      C1111   1.424   1_556  A
C1096      C1104   1.390       .  A
C1097      C1109   1.420   1_655  A
C1097      C1105   1.389       .  A
C1098      C1112   1.416   1_665  A
C1098      C1106   1.382       .  A
C1099      C1107   1.382       .  A
C1099      C1110   1.418   1_655  A
C1100      C1108   1.389       .  A
C1101      C1102   1.377       .  A
C1101      H1113   1.082       .  S
C1102      H1114   1.081       .  S
C1103      C1104   1.379       .  A
C1103      H1115   1.080       .  S
C1104      H1116   1.082       .  S
C1105      C1106   1.373       .  A
C1105      H1117   1.082       .  S
C1106      H1118   1.080       .  S
C1107      C1108   1.375       .  A
C1107      H1119   1.080       .  S
C1108      H1120   1.082       .  S
C1110      C1231   1.481       .  S
C1111      C1305   1.490   1_554  S
C1112      C1229   1.480       .  S
N1123      C1128   1.353       .  A
N1123      C1127   1.363       .  A
N1123      H1155   1.038       .  S
N1124      C1131   1.358       .  A
N1124      C1132   1.352       .  A
N1125      C1130   1.362       .  A
N1125      C1129   1.353       .  A
N1125      H1156   1.038       .  S
N1126      C1133   1.353       .  A
N1126      C1134   1.360       .  A
C1127      C1135   1.384       .  A
C1127      C1143   1.423   1_565  A
C1128      C1144   1.425       .  A
C1128      C1136   1.390       .  A
C1129      C1137   1.389       .  A
C1129      C1146   1.423       .  A
C1130      C1145   1.421   1_545  A
C1130      C1138   1.384       .  A
C1131      C1143   1.417       .  A
C1131      C1139   1.383       .  A
C1132      C1146   1.421       .  A
C1132      C1140   1.389       .  A
C1133      C1141   1.390       .  A
C1133      C1144   1.425       .  A
C1134      C1142   1.383       .  A
C1134      C1145   1.419       .  A
C1135      C1136   1.377       .  A
C1135      H1147   1.080       .  S
C1136      H1148   1.082       .  S
C1137      C1138   1.375       .  A
C1137      H1149   1.082       .  S
C1138      H1150   1.080       .  S
C1139      C1140   1.373       .  A
C1139      H1151   1.080       .  S
C1140      H1152   1.082       .  S
C1141      C1142   1.374       .  A
C1141      H1153   1.082       .  S
C1142      H1154   1.081       .  S
C1143      C1230   1.481       .  S
C1144      C1288   1.489       .  S
C1145      C1232   1.482   1_565  S
C1146      C1281   1.487       .  S
N1157      C1162   1.362       .  A
N1157      C1161   1.352       .  A
N1157      H1189   1.040       .  S
N1158      C1165   1.353       .  A
N1158      C1166   1.360       .  A
N1159      C1164   1.353       .  A
N1159      C1163   1.361       .  A
N1159      H1190   1.041       .  S
N1160      C1167   1.359       .  A
N1160      C1168   1.352       .  A
C1161      C1169   1.391       .  A
C1162      C1178   1.421       .  A
C1162      C1170   1.385       .  A
C1163      C1171   1.385       .  A
C1163      C1180   1.420   1_545  A
C1164      C1179   1.425       .  A
C1164      C1172   1.390       .  A
C1165      C1177   1.425       .  A
C1165      C1173   1.390       .  A
C1166      C1180   1.419       .  A
C1166      C1174   1.383       .  A
C1167      C1175   1.383       .  A
C1167      C1178   1.417   1_545  A
C1168      C1176   1.390       .  A
C1169      C1170   1.379       .  A
C1169      H1181   1.082       .  S
C1170      H1182   1.083       .  S
C1171      C1172   1.379       .  A
C1171      H1183   1.082       .  S
C1172      H1184   1.082       .  S
C1173      C1174   1.376       .  A
C1173      H1185   1.082       .  S
C1174      H1186   1.082       .  S
C1175      C1176   1.376       .  A
C1175      H1187   1.082       .  S
C1176      H1188   1.082       .  S
C1177      C1267   1.490       .  S
C1178      C1225   1.480       .  S
C1180      C1227   1.482       .  S
N1191      C1196   1.354       .  A
N1191      C1195   1.362       .  A
N1191      H1223   1.039       .  S
N1192      C1199   1.359       .  A
N1192      C1200   1.352       .  A
N1193      C1198   1.362       .  A
N1193      C1197   1.353       .  A
N1193      H1224   1.039       .  S
N1194      C1201   1.352       .  A
N1194      C1202   1.360       .  A
C1195      C1203   1.385       .  A
C1195      C1211   1.422       .  A
C1196      C1212   1.426       .  A
C1196      C1204   1.390       .  A
C1197      C1205   1.390       .  A
C1197      C1214   1.425       .  A
C1198      C1213   1.421   1_545  A
C1198      C1206   1.384       .  A
C1199      C1211   1.419   1_545  A
C1199      C1207   1.384       .  A
C1200      C1214   1.423       .  A
C1200      C1208   1.390       .  A
C1201      C1209   1.390       .  A
C1201      C1212   1.424       .  A
C1202      C1210   1.383       .  A
C1202      C1213   1.418       .  A
C1203      C1204   1.378       .  A
C1203      H1215   1.083       .  S
C1204      H1216   1.082       .  S
C1205      C1206   1.379       .  A
C1205      H1217   1.082       .  S
C1206      H1218   1.082       .  S
C1207      C1208   1.376       .  A
C1207      H1219   1.083       .  S
C1208      H1220   1.082       .  S
C1209      C1210   1.375       .  A
C1209      H1221   1.082       .  S
C1210      H1222   1.082       .  S
C1211      C1226   1.481       .  S
C1212      C1247   1.491       .  S
C1213      C1228   1.482       .  S
C1214      C1237   1.489       .  S
C1225      C1226   1.226       .  T
C1227      C1228   1.227       .  T
C1233      C1234   1.407       .  A
C1233      C1238   1.399       .  A
C1233      H1239   1.083       .  S
C1234      C1235   1.407       .  A
C1235      C1236   1.397       .  A
C1235      H1240   1.083       .  S
C1236      C1237   1.403       .  A
C1236      H1241   1.083       .  S
C1237      C1238   1.404       .  A
C1238      H1242   1.083       .  S
C1243      C1244   1.406       .  A
C1243      C1248   1.398       .  A
C1243      H1249   1.083       .  S
C1244      C1245   1.408       .  A
C1245      C1246   1.398       .  A
C1245      H1250   1.083       .  S
C1246      C1247   1.403       .  A
C1246      H1251   1.083       .  S
C1247      C1248   1.404       .  A
C1248      H1252   1.083       .  S
C1253      C1258   1.398       .  A
C1253      H1259   1.083       .  S
C1254      C1255   1.406   1_554  A
C1255      C1256   1.398       .  A
C1255      H1260   1.083       .  S
C1256      C1257   1.405   1_556  A
C1256      H1261   1.083       .  S
C1258      H1262   1.083       .  S
C1263      C1268   1.398       .  A
C1263      H1269   1.083       .  S
C1264      C1265   1.407       .  A
C1265      C1266   1.398       .  A
C1265      H1270   1.083       .  S
C1266      C1267   1.404       .  A
C1266      H1271   1.083       .  S
C1268      H1272   1.083       .  S
C1273      C1274   1.188       .  T
C1275      C1276   1.189       .  T
C1277      C1282   1.397       .  A
C1277      H1283   1.083       .  S
C1278      C1279   1.407       .  A
C1279      C1280   1.397       .  A
C1279      H1284   1.083       .  S
C1280      H1285   1.083       .  S
C1281      C1282   1.402       .  A
C1282      H1286   1.083       .  S
C1287      C1288   1.403       .  A
C1287      C1292   1.398       .  A
C1287      H1293   1.083       .  S
C1289      C1290   1.398       .  A
C1289      H1294   1.083       .  S
C1290      H1295   1.083       .  S
C1291      C1292   1.407       .  A
C1292      H1296   1.083       .  S
C1297      C1298   1.207       .  T
C1299      C1300   1.206       .  T
C1301      C1306   1.397       .  A
C1301      H1307   1.083       .  S
C1303      C1304   1.399       .  A
C1303      H1308   1.083       .  S
C1304      H1309   1.083       .  S
C1306      H1310   1.083       .  S
C1311      C1316   1.397       .  A
C1311      H1317   1.083       .  S
C1313      C1314   1.397       .  A
C1313      H1318   1.083       .  S
C1314      H1319   1.083       .  S
C1315      C1316   1.403   1_455  A
C1316      H1320   1.083       .  S
