geometry optimzed in LAMMPS
_audit_creation_date              2020-11-30 
_audit_creation_method            'lammps2cif' 
_symmetry_space_group_name_H-M    'P1' 
_symmetry_Int_Tables_number       1 
_symmetry_cell_setting            triclinic 
loop_ 
_symmetry_equiv_pos_as_xyz 
  x,y,z 
_cell_length_a                    31.17823784 
_cell_length_b                    40.98420270598176 
_cell_length_c                    31.36178796033441 
_cell_angle_alpha                 89.36869389131124 
_cell_angle_beta                  90.29730811517383 
_cell_angle_gamma                 91.28273677588508 
loop_ 
_atom_site_label 
_atom_site_type_symbol 
_atom_site_fract_x 
_atom_site_fract_y 
_atom_site_fract_z 
_atom_site_charge 
O1          O  0.40741635  0.45370240  0.59172455    -0.74600
O2          O  0.44691952  0.41655147  0.55694807    -0.53600
C3          C  0.41817835  0.42418323  0.58405814     0.79100
O4          O  0.39934448  0.56295563  0.42537648    -0.59200
O5          O  0.43876742  0.60179059  0.46074691    -0.52300
C6          C  0.40909807  0.59278751  0.43437405     0.71100
O7          O  0.40348573  0.45388381  0.42292033    -0.73800
O8          O  0.44040361  0.41665605  0.46254198    -0.54400
C9          C  0.41281144  0.42449247  0.43374918     0.77100
O10         O  0.40790357  0.56317436  0.59396746    -0.58900
O11         O  0.44416890  0.60219296  0.55509642    -0.52100
C12         C  0.41711921  0.59308711  0.58412842     0.73700
Zr13       Zr  0.43036273  0.50919880  0.57242407     2.54700
O14         O  0.35362858  0.50796943  0.58651339    -0.79500
O15         O  0.45064953  0.51057192  0.64737723    -0.92900
Zr16       Zr  0.42382606  0.50888568  0.44567169     2.64700
O17         O  0.34652429  0.50266775  0.45370453    -0.97900
O18         O  0.42068979  0.51132120  0.36812991    -0.79900
O19         O  0.42569474  0.47751996  0.50951785    -0.83300
O20         O  0.42567114  0.54055502  0.50863057    -2.18000
O21         O  0.57799630  0.56703430  0.58745553    -0.66700
O22         O  0.53812328  0.60461942  0.55161928    -0.51300
C23         C  0.56735350  0.59659485  0.57873344     0.72100
O24         O  0.57581568  0.45711087  0.42299008    -0.59600
O25         O  0.53818259  0.41847509  0.46106825    -0.51600
C26         C  0.56690017  0.42725091  0.43366783     0.73900
O27         O  0.56898687  0.56680342  0.41549202    -0.71000
O28         O  0.53553417  0.60443969  0.45624018    -0.49700
C29         C  0.56083290  0.59629756  0.42595565     0.75300
O30         O  0.57865979  0.45678536  0.58715749    -0.66300
O31         O  0.53773043  0.41809794  0.55344438    -0.53500
C32         C  0.56779664  0.42690805  0.57932333     0.73600
Zr33       Zr  0.55659013  0.51162979  0.56685514     2.77500
O34         O  0.63434548  0.50957494  0.56323779    -0.97100
O35         O  0.55577959  0.51270724  0.64434459    -0.77900
Zr36       Zr  0.55110082  0.51164525  0.44060819     2.70100
O37         O  0.62902387  0.51619191  0.44204001    -0.79100
O38         O  0.54730367  0.50931729  0.36310878    -0.98200
Zr39       Zr  0.49025436  0.44782079  0.50683801     2.21500
Zr40       Zr  0.48980562  0.57339740  0.50560449     2.11100
O41         O  0.55463402  0.54350821  0.50331335    -2.46900
O42         O  0.55459964  0.48001464  0.50406671    -0.78900
O43         O  0.49328919  0.54239369  0.56988378    -0.71100
O44         O  0.48765946  0.47863173  0.44208277    -2.32100
O45         O  0.49353004  0.47852443  0.57074618    -2.28300
O46         O  0.48716705  0.54207352  0.44194458    -0.72900
H47         H  0.40057446  0.55392571  0.50968948     0.79100
H48         H  0.48696728  0.46451363  0.41762299     0.80200
H49         H  0.57941188  0.55806197  0.50217270     0.82400
H50         H  0.49475866  0.46433854  0.59545031     0.80000
H51         H  0.39032470  0.50611607  0.36102959     0.43100
H52         H  0.53395167  0.48773537  0.35688989     0.42000
H53         H  0.63725661  0.51851501  0.41170952     0.41700
H54         H  0.64221924  0.52451108  0.53942349     0.39600
H55         H  0.58617666  0.51640877  0.65256305     0.42800
H56         H  0.45998346  0.48823398  0.65457536     0.37600
H57         H  0.35131135  0.50307132  0.61743197     0.43700
H58         H  0.33926492  0.51788574  0.47673209     0.40100
H59         H  0.64465949  0.52072514  0.58932549     0.45000
H60         H  0.42319606  0.51292510  0.66250645     0.43700
H61         H  0.33444967  0.51246866  0.42739951     0.43900
H62         H  0.52502276  0.52512896  0.35515111     0.44200
O63         O  0.91776050  0.45194097  0.91345767    -0.74600
O64         O  0.95333324  0.41376111  0.95266703    -0.53600
C65         C  0.92765934  0.42229483  0.92250348     0.79100
O66         O  0.08219116  0.56267560  0.91578701    -0.59200
O67         O  0.04620857  0.59999943  0.95454031    -0.52300
C68         C  0.07322845  0.59218968  0.92572918     0.71100
O69         O  0.07894102  0.45175017  0.91420418    -0.73800
O70         O  0.04022132  0.41369020  0.95172578    -0.54400
C71         C  0.06758576  0.42189227  0.92289369     0.77100
O72         O  0.91038826  0.56172097  0.92304487    -0.58900
O73         O  0.95307509  0.59953117  0.95676128    -0.52100
C74         C  0.92227457  0.59127540  0.93148488     0.73700
Zr75       Zr  0.93317302  0.50650005  0.94109041     2.54700
O76         O  0.92817997  0.51193027  0.86384719    -0.79500
O77         O  0.85577266  0.50208393  0.95081356    -0.92900
Zr78       Zr  0.06054420  0.50708267  0.93676875     2.64700
O79         O  0.04925704  0.50596959  0.86018473    -0.97900
O80         O  0.13833974  0.50705438  0.93060947    -0.79900
O81         O  0.99635057  0.47548320  0.93836313    -0.83300
O82         O  0.99741483  0.53840835  0.93823191    -2.18000
O83         O  0.91421659  0.55976000  0.08512755    -0.66700
O84         O  0.95323551  0.59840379  0.04857635    -0.51300
C85         C  0.92415984  0.58976039  0.07559384     0.72100
O86         O  0.08502261  0.45258218  0.08651398    -0.59600
O87         O  0.04860073  0.41414451  0.04738217    -0.51600
C88         C  0.07609180  0.42297287  0.07604528     0.73900
O89         O  0.08605803  0.56205482  0.08601788    -0.71000
O90         O  0.04671757  0.59983070  0.05005309    -0.49700
C91         C  0.07535187  0.59162840  0.07757544     0.75300
O92         O  0.91335988  0.44853558  0.08399658    -0.66300
O93         O  0.95243023  0.41136170  0.04800570    -0.53500
C94         C  0.92306819  0.41907643  0.07438256     0.73600
Zr95       Zr  0.93805939  0.50456986  0.06771090     2.77500
O96         O  0.95506205  0.49974684  0.14332759    -0.97100
O97         O  0.86132211  0.50402695  0.08191151    -0.77900
Zr98       Zr  0.06542305  0.50696890  0.06325420     2.70100
O99         O  0.07382736  0.50633726  0.14045348    -0.79100
O100        O  0.14274645  0.50734996  0.05312687    -0.98200
Zr101      Zr  0.99885813  0.44380893  0.00206792     2.21500
Zr102      Zr  0.00018379  0.56873615  0.00254781     2.11100
O103        O  0.00173049  0.53735870  0.06690529    -2.46900
O104        O  0.00168572  0.47404291  0.06642473    -0.78900
O105        O  0.93519384  0.53710954  0.00466477    -0.71100
O106        O  0.06400577  0.47534083  0.00020233    -2.32100
O107        O  0.93416213  0.47385060  0.00393305    -2.28300
O108        O  0.06471722  0.53885043  0.99983052    -0.72900
H109        H  0.99659733  0.55282874  0.91371446     0.79100
H110        H  0.08868471  0.46151531  0.99940733     0.80200
H111        H  0.00238015  0.55126172  0.09151059     0.82400
H112        H  0.90923211  0.45939751  0.00386727     0.80000
H113        H  0.14856289  0.52517867  0.94892018     0.43100
H114        H  0.14803054  0.52374442  0.03022967     0.42000
H115        H  0.04652913  0.49669595  0.15119168     0.41700
H116        H  0.96848876  0.52098603  0.15100970     0.39600
H117        H  0.85861522  0.49652983  0.11194680     0.42800
H118        H  0.84946723  0.47842385  0.95444210     0.37600
H119        H  0.90050960  0.50116245  0.85624663     0.43700
H120        H  0.02706645  0.52235303  0.85438047     0.40100
H121        H  0.92692521  0.49925371  0.15777042     0.45000
H122        H  0.84362809  0.50766179  0.92253451     0.43700
H123        H  0.07610465  0.51546612  0.84821671     0.43900
H124        H  0.15466088  0.51757691  0.07921393     0.44200
C125        C  0.74658031  0.26009726  0.74534197    -0.01800
O126        O  0.57509151  0.06537615  0.91725956    -0.74600
O127        O  0.54058449  0.10363673  0.95494537    -0.53600
C128        C  0.56766453  0.09523574  0.92651972     0.79100
O129        O  0.41059619  0.95078409  0.92376242    -0.59200
O130        O  0.45057688  0.91434987  0.96140807    -0.52300
C131        C  0.42161099  0.92176392  0.93377438     0.71100
O132        O  0.40654449  0.05780869  0.91490116    -0.73800
O133        O  0.44395368  0.09874188  0.94837906    -0.54400
C134        C  0.41561103  0.08796530  0.92159900     0.77100
O135        O  0.57592643  0.95488876  0.92120652    -0.58900
O136        O  0.54341962  0.91681765  0.96332431    -0.52100
C137        C  0.56896837  0.92496184  0.93278601     0.73700
Zr138      Zr  0.55837684  0.01027162  0.94309966     2.54700
O139        O  0.57149211  0.01123476  0.86670903    -0.79500
O140        O  0.63529891  0.00942536  0.95712240    -0.92900
Zr141      Zr  0.43117066  0.00601374  0.94119858     2.64700
O142        O  0.43760212  0.00173892  0.86413544    -0.97900
O143        O  0.35314327  0.00279871  0.93929988    -0.79900
O144        O  0.49371417  0.03984194  0.93846633    -0.83300
O145        O  0.49555028  0.97684201  0.94217384    -2.18000
O146        O  0.58284951  0.95920020  0.09028964    -0.66700
O147        O  0.54672169  0.91967444  0.05274859    -0.51300
C148        C  0.57515635  0.92911610  0.07996294     0.72100
O149        O  0.40964990  0.06503199  0.08778505    -0.59600
O150        O  0.44263942  0.10317711  0.04475043    -0.51600
C151        C  0.41714133  0.09469180  0.07528958     0.73900
O152        O  0.41212232  0.95480151  0.09259437    -0.71000
O153        O  0.45165734  0.91720993  0.05793876    -0.49700
C154        C  0.42352117  0.92535095  0.08539123     0.75300
O155        O  0.57354724  0.07133476  0.08699744    -0.66300
O156        O  0.53492453  0.10698863  0.04649322    -0.53500
C157        C  0.56267926  0.10045033  0.07560635     0.73600
Zr158      Zr  0.55757396  0.01396052  0.06888279     2.77500
O159        O  0.55880787  0.01465092  0.14650447    -0.97100
O160        O  0.63533122  0.01908539  0.06419639    -0.77900
Zr161      Zr  0.42995989  0.00993008  0.06725460     2.70100
O162        O  0.42855251  0.01271718  0.14464669    -0.79100
O163        O  0.35194965  0.00802717  0.06115943    -0.98200
Zr164      Zr  0.49131887  0.07286825  0.00037152     2.21500
Zr165      Zr  0.49596587  0.94757483  0.00799688     2.11100
O166        O  0.49469501  0.98036257  0.07067134    -2.46900
O167        O  0.49275644  0.04349808  0.06647635    -0.78900
O168        O  0.55974122  0.98039235  0.00788203    -0.71100
O169        O  0.42788544  0.03960379  0.00205829    -2.32100
O170        O  0.55715579  0.04407860  0.00384940    -2.28300
O171        O  0.43018649  0.97603634  0.00623927    -0.72900
H172        H  0.49575231  0.96237609  0.91805199     0.79100
H173        H  0.40253521  0.05275004  0.00084007     0.80200
H174        H  0.49533208  0.96696532  0.09623842     0.82400
H175        H  0.58143558  0.05912243  0.00336460     0.80000
H176        H  0.34588979  0.99658014  0.90964257     0.43100
H177        H  0.34589166  0.01474881  0.03133260     0.42000
H178        H  0.45895227  0.01641816  0.15298023     0.41700
H179        H  0.58796722  0.02298122  0.15389871     0.39600
H180        H  0.64628286  0.00524729  0.08770175     0.42800
H181        H  0.63935779  0.99065359  0.97683432     0.37600
H182        H  0.54279161  0.00786865  0.85373776     0.43700
H183        H  0.40938580  0.00838306  0.85279724     0.40100
H184        H  0.53961491  0.03256413  0.15417641     0.45000
H185        H  0.64151746  0.02887894  0.97468268     0.43700
H186        H  0.45757796  0.01978456  0.85589450     0.43900
H187        H  0.34385656  0.98454846  0.06222370     0.44200
C188        C  0.24460297  0.76289373  0.74950465    -0.01800
O189        O  0.90100702  0.06116031  0.41147254    -0.74600
O190        O  0.93647970  0.09918374  0.45204534    -0.53600
C191        C  0.90994592  0.09090029  0.42232474     0.79100
O192        O  0.90802524  0.94834310  0.58782880    -0.59200
O193        O  0.94208612  0.91161564  0.54635255    -0.52300
C194        C  0.91747765  0.91909407  0.57732120     0.71100
O195        O  0.89997841  0.05847337  0.58310792    -0.73800
O196        O  0.93390693  0.09779223  0.54365683    -0.54400
C197        C  0.90722871  0.08857657  0.57262968     0.77100
O198        O  0.89992038  0.94992347  0.41450980    -0.58900
O199        O  0.93969510  0.91274831  0.45130831    -0.52100
C200        C  0.91071608  0.92047723  0.42392313     0.73700
Zr201      Zr  0.92094888  0.00579700  0.43470407     2.54700
O202        O  0.84293443  0.00520956  0.43714231    -0.79500
O203        O  0.92204055  0.00460071  0.35710498    -0.92900
Zr204      Zr  0.92084763  0.00393778  0.56142892     2.64700
O205        O  0.84315740  0.99739492  0.55619807    -0.97900
O206        O  0.91564540  0.00644789  0.63872154    -0.79900
O207        O  0.91891274  0.03654972  0.49844374    -0.83300
O208        O  0.92078767  0.97314963  0.49784156    -2.18000
O209        O  0.06982639  0.95558882  0.41340418    -0.66700
O210        O  0.03378336  0.91579092  0.45107646    -0.51300
C211        C  0.06119598  0.92551700  0.42291430     0.72100
O212        O  0.06823480  0.06186580  0.58455572    -0.59600
O213        O  0.02888304  0.09977774  0.54860590    -0.51600
C214        C  0.05758153  0.09129514  0.57597410     0.73900
O215        O  0.07053776  0.95270191  0.58309989    -0.71000
O216        O  0.03452230  0.91395329  0.54451451    -0.49700
C217        C  0.06246121  0.92289061  0.57269127     0.75300
O218        O  0.06810220  0.06592722  0.41610552    -0.66300
O219        O  0.02894656  0.10218848  0.45340890    -0.53500
C220        C  0.05714820  0.09517102  0.42541229     0.73600
Zr221      Zr  0.04879574  0.00961544  0.43632155     2.77500
O222        O  0.12684480  0.01156988  0.44085267    -0.97100
O223        O  0.05008532  0.01076671  0.35887373    -0.77900
Zr224      Zr  0.04818028  0.00718496  0.56234027     2.70100
O225        O  0.12587908  0.01105898  0.55657521    -0.79100
O226        O  0.05008520  0.00403348  0.63993243    -0.98200
Zr227      Zr  0.98323593  0.06907696  0.49947682     2.21500
Zr228      Zr  0.98626197  0.94408083  0.49819614     2.11100
O229        O  0.05037283  0.97670451  0.49887296    -2.46900
O230        O  0.04874173  0.04034343  0.49985314    -0.78900
O231        O  0.98562052  0.97613165  0.43429361    -0.71100
O232        O  0.98394327  0.03709219  0.56350954    -2.32100
O233        O  0.98424629  0.03902420  0.43481817    -2.28300
O234        O  0.98509460  0.97402465  0.56274844    -0.72900
H235        H  0.89643583  0.95806139  0.49780219     0.79100
H236        H  0.98357985  0.05065110  0.58836160     0.80200
H237        H  0.07546986  0.96340719  0.49887074     0.82400
H238        H  0.98424004  0.05331901  0.41024661     0.80000
H239        H  0.94397255  0.99934100  0.64916795     0.43100
H240        H  0.07563867  0.01729896  0.64835117     0.42000
H241        H  0.13590860  0.01758753  0.58529362     0.41700
H242        H  0.13334554  0.02699173  0.46418768     0.39600
H243        H  0.01976014  0.00714970  0.35035539     0.42800
H244        H  0.89272926  0.99721034  0.34883263     0.37600
H245        H  0.83611886  0.01341680  0.46584348     0.43700
H246        H  0.83804270  0.97914074  0.53630542     0.40100
H247        H  0.13480214  0.98998674  0.45260807     0.45000
H248        H  0.94045836  0.98602121  0.35015889     0.43700
H249        H  0.83448365  0.98832773  0.58435960     0.43900
H250        H  0.02539585  0.01689891  0.64912797     0.44200
C251        C  0.74449417  0.75392546  0.24046820    -0.01800
C252        C  0.24584958  0.25718694  0.25333592    -0.01800
C253        C  0.73605876  0.26363121  0.25624894    -0.01800
C254        C  0.24107583  0.76117071  0.25858726    -0.01800
C255        C  0.23785981  0.25415714  0.75232670    -0.01800
C256        C  0.74357918  0.75719452  0.76278119    -0.01800
C257        C  0.14975988  0.14315503  0.61816153    -0.04800
C258        C  0.12907433  0.16214078  0.64900078     0.09300
C259        C  0.08430405  0.15829369  0.65496469    -0.02200
C260        C  0.06078478  0.13493532  0.63124004    -0.00500
C261        C  0.08125330  0.11701819  0.59940283    -0.04100
C262        C  0.12570801  0.12137792  0.59266581     0.02900
C263        C  0.15492841  0.18594408  0.67506998     0.09800
C264        C  0.06242329  0.17783721  0.68602332     0.35700
C265        C  0.14671089  0.10332939  0.55941937     0.39100
C266        C  0.17597186  0.21243543  0.65501700    -0.04400
C267        C  0.20702307  0.23122539  0.67724265     0.02700
C268        C  0.20940470  0.22998044  0.72335541    -0.04000
C269        C  0.18537206  0.20334133  0.74329548    -0.00300
C270        C  0.16114535  0.18067255  0.71889850    -0.02800
C271        C  0.16688242  0.21951252  0.61032256     0.36400
C272        C  0.18201343  0.19946874  0.78922257     0.40000
C273        C  0.23891968  0.24697073  0.65000286     0.39200
C274        C  0.14138787  0.15213627  0.73939487     0.36100
C275        C  0.19599585  0.14563352  0.61311975     0.36800
C276        C  0.01646855  0.12749694  0.64206083     0.40000
N277        N  0.26395012  0.25808037  0.62652360    -0.38000
N278        N  0.15958701  0.22507821  0.57479365    -0.39600
N279        N  0.17696172  0.19465178  0.82529724    -0.37400
N280        N  0.12549582  0.12960673  0.75595522    -0.39800
N281        N  0.04459896  0.19304246  0.71095438    -0.39500
N282        N  0.98149491  0.12118383  0.65180208    -0.37200
N283        N  0.16327780  0.08902295  0.53274239    -0.38200
N284        N  0.23282935  0.14781254  0.60908611    -0.39900
C285        C  0.11548547  0.17588507  0.39868587    -0.04800
C286        C  0.12427269  0.17174032  0.35498636     0.09300
C287        C  0.10645293  0.14443883  0.33363407    -0.02200
C288        C  0.08290913  0.12032107  0.35645773    -0.00500
C289        C  0.07812986  0.12259986  0.40116427    -0.04100
C290        C  0.09319946  0.15120045  0.42195280     0.02900
C291        C  0.15365614  0.19551488  0.33195997     0.09800
C292        C  0.11128430  0.14125536  0.28791682     0.35700
C293        C  0.08665625  0.15522776  0.46733234     0.39100
C294        C  0.19786267  0.19550467  0.34016632    -0.04400
C295        C  0.22651220  0.21592405  0.31643280     0.02700
C296        C  0.21152047  0.23750885  0.28286776    -0.04000
C297        C  0.16515423  0.23989249  0.27991121    -0.00300
C298        C  0.13740649  0.21796348  0.30249436    -0.02800
C299        C  0.21427258  0.17218373  0.37123021     0.36400
C300        C  0.14321007  0.26629027  0.25869856     0.40000
C301        C  0.27162533  0.21091068  0.32493456     0.39200
C302        C  0.09113667  0.21879787  0.29613387     0.36100
C303        C  0.12893103  0.20591365  0.41941580     0.36800
C304        C  0.06160277  0.09410052  0.33323565     0.40000
N305        N  0.30638912  0.20454235  0.33442891    -0.38000
N306        N  0.22713024  0.15347224  0.39578756    -0.39600
N307        N  0.12292606  0.28687102  0.24388269    -0.37400
N308        N  0.05436933  0.21919930  0.29096551    -0.39800
N309        N  0.11384876  0.13826411  0.25137503    -0.39500
N310        N  0.04430605  0.07369859  0.31407719    -0.37200
N311        N  0.08134808  0.15881728  0.50345625    -0.38200
N312        N  0.13931714  0.23007232  0.43564396    -0.39900
C313        C  0.79871345  0.83576044  0.70980640    -0.04800
C314        C  0.82919901  0.82231082  0.68274183     0.09300
C315        C  0.83695093  0.78880905  0.68575741    -0.02200
C316        C  0.81065343  0.76802105  0.71164089    -0.00500
C317        C  0.77683494  0.78086618  0.73767829    -0.04100
C318        C  0.77651077  0.81599809  0.73991701     0.02900
C319        C  0.85598533  0.84431141  0.65438952     0.09800
C320        C  0.87202320  0.77566803  0.66137491     0.35700
C321        C  0.76175303  0.83314855  0.77695836     0.39100
C322        C  0.88593884  0.86641313  0.67288974    -0.04400
C323        C  0.90641437  0.89066070  0.64759404     0.02700
C324        C  0.89852260  0.89210978  0.60327130    -0.04000
C325        C  0.87225490  0.86789415  0.58406934    -0.00300
C326        C  0.85057714  0.84429071  0.60954259    -0.02800
C327        C  0.89596334  0.86389312  0.71802157     0.36400
C328        C  0.86696625  0.86744713  0.53808540     0.40000
C329        C  0.93671995  0.91350041  0.66696781     0.39200
C330        C  0.82315146  0.82009818  0.58900458     0.36100
C331        C  0.79165737  0.87073182  0.70827182     0.36800
C332        C  0.81914691  0.73353458  0.70897647     0.40000
N333        N  0.96107320  0.93160757  0.68236040    -0.38000
N334        N  0.90402389  0.86167436  0.75398111    -0.39600
N335        N  0.86295624  0.86657893  0.50142579    -0.37400
N336        N  0.80229900  0.80104532  0.57086520    -0.39800
N337        N  0.90000467  0.76536670  0.64191827    -0.39500
N338        N  0.82934564  0.70679370  0.70470505    -0.37200
N339        N  0.75272678  0.84737783  0.80713589    -0.38200
N340        N  0.78615076  0.89856336  0.70739176    -0.39900
C341        C  0.14015632  0.80519483  0.30877035    -0.04800
C342        C  0.15998832  0.83019299  0.33209992     0.09300
C343        C  0.20459132  0.83424631  0.33090552    -0.02200
C344        C  0.23005173  0.81187540  0.30883227    -0.00500
C345        C  0.21097587  0.78556135  0.28410766    -0.04100
C346        C  0.16444820  0.78533944  0.28184682     0.02900
C347        C  0.13341033  0.85401322  0.35547182     0.09800
C348        C  0.22444447  0.86149395  0.35357941     0.35700
C349        C  0.13940697  0.76953677  0.24858749     0.39100
C350        C  0.12773248  0.85091857  0.39987771    -0.04400
C351        C  0.10469260  0.87447640  0.42206299     0.02700
C352        C  0.08504552  0.90033675  0.39964677    -0.04000
C353        C  0.08872227  0.90223827  0.35473226    -0.00300
C354        C  0.11403344  0.87982342  0.33296396    -0.02800
C355        C  0.14532064  0.82341017  0.42298045     0.36400
C356        C  0.06423525  0.92585444  0.33054711     0.40000
C357        C  0.10276851  0.87239649  0.46814624     0.39200
C358        C  0.12055793  0.88343392  0.28737012     0.36100
C359        C  0.09374947  0.80090605  0.31123265     0.36800
C360        C  0.27596392  0.81606518  0.31494658     0.40000
N361        N  0.10208979  0.87001157  0.50489367    -0.38000
N362        N  0.15852184  0.80164340  0.44241108    -0.39600
N363        N  0.04399845  0.94416677  0.31113334    -0.37400
N364        N  0.12610608  0.88637340  0.25106146    -0.39800
N365        N  0.24014274  0.88321288  0.37158151    -0.39500
N366        N  0.31176257  0.82164581  0.32236297    -0.37200
N367        N  0.11783396  0.75843477  0.22206407    -0.38200
N368        N  0.05687786  0.79748468  0.31345095    -0.39900
C369        C  0.81675940  0.78594315  0.33688827    -0.04800
C370        C  0.82080439  0.81947184  0.32822621     0.09300
C371        C  0.79930624  0.83255435  0.29299811    -0.02200
C372        C  0.76970639  0.81325724  0.26971487    -0.00500
C373        C  0.76954841  0.77800648  0.27277390    -0.04100
C374        C  0.79374623  0.76509583  0.30853222     0.02900
C375        C  0.84448201  0.84220428  0.35772136     0.09800
C376        C  0.80572348  0.86700477  0.28224322     0.35700
C377        C  0.79793255  0.73042960  0.31650539     0.39100
C378        C  0.88966647  0.84435396  0.35746166    -0.04400
C379        C  0.91125146  0.86981519  0.37929310     0.02700
C380        C  0.88788659  0.89328129  0.40170395    -0.04000
C381        C  0.84268302  0.89025011  0.40341712    -0.00300
C382        C  0.82117830  0.86453239  0.38204763    -0.02800
C383        C  0.91410615  0.82073699  0.33419251     0.36400
C384        C  0.81818796  0.91326667  0.42765508     0.40000
C385        C  0.95751123  0.87263430  0.37663934     0.39200
C386        C  0.77480309  0.86118059  0.38440564     0.36100
C387        C  0.83731131  0.77279617  0.37484179     0.36800
C388        C  0.73575001  0.83201898  0.25080521     0.40000
N389        N  0.99443258  0.87433165  0.37386221    -0.38000
N390        N  0.93420577  0.80189308  0.31628887    -0.39600
N391        N  0.79845845  0.93150781  0.44698697    -0.37400
N392        N  0.73783488  0.85831837  0.38602162    -0.39800
N393        N  0.81081753  0.89436622  0.27376210    -0.39500
N394        N  0.70959983  0.84933723  0.23839815    -0.37200
N395        N  0.80346791  0.70338494  0.32551944    -0.38200
N396        N  0.85366676  0.76237063  0.40510715    -0.39900
C397        C  0.82831256  0.22691218  0.33036128    -0.04800
C398        C  0.81885327  0.19332028  0.33081179     0.09300
C399        C  0.78434992  0.18158413  0.30638960    -0.02200
C400        C  0.76112764  0.20263849  0.27913545    -0.00500
C401        C  0.76607770  0.23785344  0.28126065    -0.04100
C402        C  0.80210704  0.24903825  0.30715322     0.02900
C403        C  0.84612895  0.16942696  0.35517846     0.09800
C404        C  0.77369616  0.14677333  0.30813551     0.35700
C405        C  0.81291355  0.28328649  0.31254777     0.39100
C406        C  0.84164369  0.16548744  0.39971257    -0.04400
C407        C  0.86320808  0.14031927  0.42159721     0.02700
C408        C  0.88812234  0.11788491  0.39903290    -0.04000
C409        C  0.89306039  0.12204565  0.35449801    -0.00300
C410        C  0.87313000  0.14821376  0.33292773    -0.02800
C411        C  0.81389792  0.18674123  0.42313323     0.36400
C412        C  0.91889012  0.09955548  0.33082884     0.40000
C413        C  0.85817640  0.13686908  0.46733410     0.39200
C414        C  0.88022610  0.15339984  0.28765356     0.36100
C415        C  0.86503423  0.23875542  0.35489861     0.36800
C416        C  0.73851832  0.18548616  0.24569165     0.40000
N417        N  0.85370334  0.13454748  0.50382196    -0.38000
N418        N  0.79201032  0.20341243  0.44257444    -0.39600
N419        N  0.93922148  0.08149319  0.31183272    -0.37400
N420        N  0.88594220  0.15778957  0.25159096    -0.39800
N421        N  0.76530581  0.11913214  0.30939770    -0.39500
N422        N  0.72293844  0.16898898  0.22001213    -0.37200
N423        N  0.82462081  0.30973707  0.31926515    -0.38200
N424        N  0.89424141  0.24803168  0.37460390    -0.39900
C425        C  0.19026221  0.80645890  0.64842901    -0.04800
C426        C  0.16469126  0.82954839  0.66786066     0.09300
C427        C  0.16683279  0.83329699  0.71210815    -0.02200
C428        C  0.19204480  0.81233110  0.73770333    -0.00500
C429        C  0.21708537  0.78670236  0.71925442    -0.04100
C430        C  0.21807809  0.78675313  0.67299289     0.02900
C431        C  0.13849588  0.85232745  0.64115317     0.09800
C432        C  0.14217647  0.85893493  0.73143436     0.35700
C433        C  0.25117853  0.77143362  0.64849511     0.39100
C434        C  0.09486824  0.84519122  0.63240749    -0.04400
C435        C  0.06967066  0.86797334  0.60994896     0.02700
C436        C  0.08856217  0.89748047  0.59438769    -0.04000
C437        C  0.13332121  0.90288478  0.59970057    -0.00300
C438        C  0.15776749  0.88101472  0.62417823    -0.02800
C439        C  0.07608228  0.81404905  0.64556870     0.36400
C440        C  0.15508946  0.92965533  0.57746924     0.40000
C441        C  0.02438840  0.86084945  0.60330259     0.39200
C442        C  0.20305629  0.88785913  0.63155823     0.36100
C443        C  0.18967416  0.80454056  0.60209695     0.36800
C444        C  0.18924189  0.81725034  0.78331095     0.40000
N445        N  0.98840298  0.85455039  0.59806743    -0.38000
N446        N  0.06063361  0.78911186  0.65510169    -0.39600
N447        N  0.17302913  0.95044004  0.55918356    -0.37400
N448        N  0.23915528  0.89339763  0.63739573    -0.39800
N449        N  0.12256513  0.87940498  0.74662599    -0.39500
N450        N  0.18480284  0.82333418  0.81893783    -0.37200
N451        N  0.27759239  0.76063348  0.62743169    -0.38200
N452        N  0.18923334  0.80332676  0.56524529    -0.39900
C453        C  0.65064092  0.15335362  0.12611200    -0.04800
C454        C  0.62663251  0.17768700  0.14625081     0.09300
C455        C  0.58194861  0.17875138  0.13888535    -0.02200
C456        C  0.56122414  0.15475006  0.11364252    -0.00500
C457        C  0.58461653  0.12839530  0.09743759    -0.04100
C458        C  0.62971213  0.12881587  0.10208896     0.02900
C459        C  0.64883004  0.20318493  0.17316666     0.09800
C460        C  0.55728485  0.20484781  0.15690038     0.35700
C461        C  0.65510209  0.10547315  0.07929139     0.39100
C462        C  0.67649431  0.22638496  0.15420620    -0.04400
C463        C  0.70071474  0.24855136  0.17942336     0.02700
C464        C  0.70132578  0.24582309  0.22556011    -0.04000
C465        C  0.66652848  0.22616257  0.24321886    -0.00300
C466        C  0.64176784  0.20458498  0.21733377    -0.02800
C467        C  0.67902605  0.22797932  0.10785011     0.36400
C468        C  0.65616061  0.22581705  0.28819267     0.40000
C469        C  0.71818219  0.27632793  0.15589050     0.39200
C470        C  0.61121693  0.18171480  0.23685323     0.36100
C471        C  0.69714102  0.15398123  0.12857167     0.36800
C472        C  0.51632177  0.15837303  0.10302169     0.40000
N473        N  0.72984582  0.29821295  0.13508524    -0.38000
N474        N  0.68118061  0.22905857  0.07102965    -0.39600
N475        N  0.64465114  0.22444271  0.32320730    -0.37400
N476        N  0.58688529  0.16355954  0.25245977    -0.39800
N477        N  0.53755290  0.22541242  0.17172054    -0.39500
N478        N  0.48091747  0.16266801  0.09381593    -0.37200
N479        N  0.67566911  0.08735292  0.06065769    -0.38200
N480        N  0.73427271  0.15447667  0.12928265    -0.39900
C481        C  0.34193229  0.16405029  0.10110591    -0.04800
C482        C  0.35131877  0.16917266  0.14464695     0.09300
C483        C  0.38366515  0.15086504  0.16469896    -0.02200
C484        C  0.40474818  0.12634786  0.14213725    -0.00500
C485        C  0.39521428  0.12098689  0.09862865    -0.04100
C486        C  0.36463575  0.14067883  0.07792452     0.02900
C487        C  0.32409976  0.19127153  0.17061494     0.09800
C488        C  0.39484090  0.15695806  0.20886806     0.35700
C489        C  0.35565601  0.13648459  0.03299955     0.39100
C490        C  0.29178236  0.17775558  0.19636364    -0.04400
C491        C  0.26547735  0.19776924  0.22135523     0.02700
C492        C  0.27213368  0.23297999  0.22300536    -0.04000
C493        C  0.30279190  0.24588738  0.19212876    -0.00300
C494        C  0.32919231  0.22518895  0.16803154    -0.02800
C495        C  0.28452359  0.14248088  0.19547655     0.36400
C496        C  0.30958723  0.28040815  0.18392395     0.40000
C497        C  0.22912421  0.18033175  0.23966358     0.39200
C498        C  0.36332274  0.23880816  0.14135518     0.36100
C499        C  0.30767553  0.18193073  0.08065813     0.36800
C500        C  0.43698061  0.10706143  0.16358991     0.40000
N501        N  0.20095560  0.16422993  0.25230350    -0.38000
N502        N  0.27879093  0.11450420  0.19441956    -0.39600
N503        N  0.31768324  0.30694969  0.17325858    -0.37400
N504        N  0.39073537  0.24959571  0.12042562    -0.39800
N505        N  0.40406249  0.16166258  0.24408557    -0.39500
N506        N  0.46268090  0.09176846  0.18086859    -0.37200
N507        N  0.34835450  0.13377810  0.99703204    -0.38200
N508        N  0.28016360  0.19606524  0.06449011    -0.39900
C509        C  0.37275498  0.87924212  0.17858310    -0.04800
C510        C  0.35539316  0.85151752  0.15799987     0.09300
C511        C  0.36396864  0.84633927  0.11459471    -0.02200
C512        C  0.38721743  0.87003399  0.09088955    -0.00500
C513        C  0.40248092  0.89890698  0.11081109    -0.04100
C514        C  0.39681944  0.90264786  0.15522203     0.02900
C515        C  0.32724280  0.82816307  0.18222498     0.09800
C516        C  0.34901241  0.81660416  0.09417206     0.35700
C517        C  0.41746237  0.92966260  0.17743816     0.39100
C518        C  0.28280493  0.83199121  0.18175593    -0.04400
C519        C  0.25573445  0.81083788  0.20589711     0.02700
C520        C  0.27295846  0.78513925  0.23249403    -0.04000
C521        C  0.31941477  0.78488641  0.23561762    -0.00300
C522        C  0.34538367  0.80424626  0.20816089    -0.02800
C523        C  0.26483245  0.85727056  0.15455215     0.36400
C524        C  0.34280625  0.76977307  0.27030952     0.40000
C525        C  0.21005468  0.81505422  0.19962201     0.39200
C526        C  0.39174992  0.80061840  0.20776295     0.36100
C527        C  0.36577740  0.88360387  0.22388678     0.36800
C528        C  0.39459216  0.86462547  0.04588355     0.40000
N529        N  0.17445310  0.82021673  0.19211033    -0.38000
N530        N  0.25081841  0.87728897  0.13258410    -0.39600
N531        N  0.36299271  0.75929494  0.29808849    -0.37400
N532        N  0.42858281  0.79771469  0.20729947    -0.39800
N533        N  0.33787750  0.79302342  0.07702067    -0.39500
N534        N  0.40055930  0.85972779  0.01015923    -0.37200
N535        N  0.43429949  0.95084074  0.19555198    -0.38200
N536        N  0.36029749  0.88697843  0.26002695    -0.39900
C537        C  0.60270806  0.83999698  0.89281666    -0.04800
C538        C  0.63537648  0.84841905  0.86348656     0.09300
C539        C  0.64520311  0.88177769  0.85584375    -0.02200
C540        C  0.62502120  0.90632387  0.87923717    -0.00500
C541        C  0.59198962  0.89827730  0.90913461    -0.04100
C542        C  0.58125256  0.86444421  0.91557321     0.02900
C543        C  0.65881754  0.82230313  0.83971219     0.09800
C544        C  0.67472276  0.89151085  0.82215212     0.35700
C545        C  0.54765437  0.85403201  0.94494914     0.39100
C546        C  0.65234476  0.81848479  0.79589083    -0.04400
C547        C  0.67925492  0.79828575  0.77179414     0.02700
C548        C  0.71118538  0.77775871  0.79177361    -0.04000
C549        C  0.71068832  0.77784519  0.83797408    -0.00300
C550        C  0.68765730  0.80164953  0.86071943    -0.02800
C551        C  0.61827522  0.83664156  0.77519244     0.36400
C552        C  0.72964700  0.75275385  0.86434546     0.40000
C553        C  0.67424994  0.80177630  0.72609273     0.39200
C554        C  0.69371951  0.80505099  0.90645549     0.36100
C555        C  0.58976597  0.80594881  0.89814617     0.36800
C556        C  0.63982200  0.93983217  0.87228182     0.40000
N557        N  0.66675813  0.80712073  0.69054981    -0.38000
N558        N  0.59121874  0.85119593  0.75891456    -0.39600
N559        N  0.74290760  0.73311384  0.88740786    -0.37400
N560        N  0.69841999  0.80786438  0.94286480    -0.39800
N561        N  0.69679866  0.90055472  0.79471457    -0.39500
N562        N  0.65209793  0.96636304  0.86643798    -0.37200
N563        N  0.52082179  0.84549675  0.96817545    -0.38200
N564        N  0.57934631  0.77882066  0.90225226    -0.39900
C565        C  0.32220682  0.13471847  0.87534893    -0.04800
C566        C  0.34390677  0.15891172  0.85074846     0.09300
C567        C  0.38909421  0.15827436  0.84721682    -0.02200
C568        C  0.41221409  0.13382906  0.86856491    -0.00500
C569        C  0.39090439  0.11185532  0.89652209    -0.04100
C570        C  0.34563258  0.11163194  0.89880710     0.02900
C571        C  0.31851497  0.18373275  0.82667510     0.09800
C572        C  0.41191007  0.18235602  0.82122442     0.35700
C573        C  0.32298779  0.08772125  0.92532831     0.39100
C574        C  0.29611959  0.20758759  0.84855610    -0.04400
C575        C  0.26775487  0.22854415  0.82663509     0.02700
C576        C  0.26600749  0.22954456  0.78044328    -0.04000
C577        C  0.28991144  0.20447576  0.75930008    -0.00300
C578        C  0.31385855  0.18136384  0.78246629    -0.02800
C579        C  0.30057573  0.20918267  0.89474699     0.36400
C580        C  0.29335354  0.20247090  0.71330070     0.40000
C581        C  0.23791856  0.24493277  0.85396067     0.39200
C582        C  0.33404573  0.15461215  0.76059859     0.36100
C583        C  0.27563871  0.13331948  0.87589363     0.36800
C584        C  0.45685683  0.12888178  0.85816743     0.40000
N585        N  0.21450819  0.25649089  0.87771796    -0.38000
N586        N  0.30378701  0.21011702  0.93149923    -0.39600
N587        N  0.29885424  0.19861541  0.67726102    -0.37400
N588        N  0.35010059  0.13326518  0.74340924    -0.39800
N589        N  0.43073502  0.20129982  0.80057735    -0.39500
N590        N  0.49193944  0.12400661  0.84870323    -0.37200
N591        N  0.30475771  0.06889789  0.94667685    -0.38200
N592        N  0.23851558  0.13236324  0.87611808    -0.39900
C593        C  0.61981328  0.87018168  0.16344550    -0.04800
C594        C  0.64151476  0.84773150  0.13751243     0.09300
C595        C  0.64141432  0.85262795  0.09284779    -0.02200
C596        C  0.62290576  0.88069815  0.07476285    -0.00500
C597        C  0.60056362  0.90274413  0.10044104    -0.04100
C598        C  0.59916190  0.89733779  0.14491731     0.02900
C599        C  0.66643299  0.82011081  0.15728139     0.09800
C600        C  0.66010431  0.82856684  0.06529209     0.35700
C601        C  0.57593459  0.91948889  0.17165089     0.39100
C602        C  0.64543578  0.79479653  0.17989542    -0.04400
C603        C  0.66902357  0.77163062  0.20390037     0.02700
C604        C  0.71543947  0.77374249  0.20667192    -0.04000
C605        C  0.73530794  0.79526226  0.17533481    -0.00300
C606        C  0.71130240  0.81915912  0.15319786    -0.02800
C607        C  0.59886826  0.79217275  0.17738567     0.36400
C608        C  0.78092319  0.79555977  0.16669674     0.40000
C609        C  0.64368119  0.74445963  0.22082162     0.39200
C610        C  0.73353374  0.84483813  0.12904080     0.36100
C611        C  0.61783575  0.86522524  0.20923822     0.36800
C612        C  0.63012357  0.88817240  0.03013084     0.40000
N613        N  0.62180209  0.72307845  0.23265043    -0.38000
N614        N  0.56184778  0.78992383  0.17532939    -0.39600
N615        N  0.81660857  0.79720698  0.15674608    -0.37400
N616        N  0.75115500  0.86529790  0.10983485    -0.39800
N617        N  0.67510427  0.80939666  0.04339449    -0.39500
N618        N  0.63783578  0.89418626  0.99486756    -0.37200
N619        N  0.55750661  0.93717425  0.19305170    -0.38200
N620        N  0.61550784  0.86138570  0.24577832    -0.39900
C621        C  0.32091529  0.83574447  0.78761455    -0.04800
C622        C  0.32632975  0.82880422  0.83114439     0.09300
C623        C  0.30368209  0.80251390  0.84959955    -0.02200
C624        C  0.27263283  0.78510815  0.82572926    -0.00500
C625        C  0.27191422  0.78714881  0.77957549    -0.04100
C626        C  0.29605171  0.81452032  0.76152946     0.02900
C627        C  0.35166145  0.85153658  0.85896735     0.09800
C628        C  0.31019063  0.79491597  0.89461109     0.35700
C629        C  0.29804008  0.82117322  0.71606902     0.39100
C630        C  0.32989295  0.87206046  0.88712399    -0.04400
C631        C  0.35323329  0.89344203  0.91371447     0.02700
C632        C  0.39839469  0.89550879  0.91099728    -0.04000
C633        C  0.42003070  0.87600836  0.88162550    -0.00300
C634        C  0.39686260  0.85322073  0.85674779    -0.02800
C635        C  0.28332595  0.87200031  0.88760236     0.36400
C636        C  0.46516023  0.88201777  0.87312399     0.40000
C637        C  0.33063732  0.91430055  0.94279677     0.39200
C638        C  0.41962846  0.83242143  0.82785692     0.36100
C639        C  0.34191951  0.86471097  0.76950837     0.36800
C640        C  0.23794556  0.77137361  0.85129095     0.40000
N641        N  0.31274513  0.93113522  0.96578528    -0.38000
N642        N  0.24620975  0.87196779  0.88783235    -0.39600
N643        N  0.50070680  0.88723239  0.86459157    -0.37400
N644        N  0.43864407  0.81626403  0.80494545    -0.39800
N645        N  0.31546177  0.78904016  0.93041113    -0.39500
N646        N  0.21052188  0.76188352  0.87318681    -0.37200
N647        N  0.30140672  0.82845291  0.68046186    -0.38200
N648        N  0.35875014  0.88780832  0.75535635    -0.39900
C649        C  0.81683794  0.18510060  0.71420774    -0.04800
C650        C  0.81673366  0.18611046  0.66964894     0.09300
C651        C  0.79198016  0.20900892  0.64797165    -0.02200
C652        C  0.76817617  0.23212310  0.67054516    -0.00500
C653        C  0.77090358  0.23420719  0.71671400    -0.04100
C654        C  0.79490379  0.20870069  0.73766169     0.02900
C655        C  0.84035010  0.16129183  0.64501319     0.09800
C656        C  0.78895310  0.20714181  0.60163960     0.35700
C657        C  0.80155342  0.20757804  0.78350560     0.39100
C658        C  0.82219405  0.12987438  0.64002867    -0.04400
C659        C  0.84334228  0.10648289  0.61579719     0.02700
C660        C  0.88334135  0.11428913  0.59602494    -0.04000
C661        C  0.90012475  0.14684105  0.59933162    -0.00300
C662        C  0.87919740  0.16979523  0.62462566    -0.02800
C663        C  0.78115337  0.12178841  0.65968232     0.36400
C664        C  0.93868292  0.15748201  0.57682757     0.40000
C665        C  0.82210615  0.07499789  0.60997202     0.39200
C666        C  0.89788839  0.20228381  0.62982444     0.36100
C667        C  0.84041259  0.15958561  0.73605756     0.36800
C668        C  0.73822654  0.24997643  0.64415443     0.40000
N669        N  0.80439570  0.05012531  0.60581701    -0.38000
N670        N  0.74852028  0.11545555  0.67549881    -0.39600
N671        N  0.96920966  0.16643877  0.55894205    -0.37400
N672        N  0.91339370  0.22801513  0.63359129    -0.39800
N673        N  0.78627246  0.20537714  0.56491079    -0.39500
N674        N  0.71457916  0.26260363  0.62103115    -0.37200
N675        N  0.80943647  0.20519426  0.81948905    -0.38200
N676        N  0.85887742  0.13907328  0.75330775    -0.39900
C677        C  0.69002234  0.21793265  0.84719329    -0.04800
C678        C  0.66417365  0.19389257  0.82809881     0.09300
C679        C  0.66502718  0.19033969  0.78380870    -0.02200
C680        C  0.69009326  0.21181743  0.75801130    -0.00500
C681        C  0.71768487  0.23706774  0.77626206    -0.04100
C682        C  0.71835694  0.23782873  0.82245448     0.02900
C683        C  0.63981184  0.16954501  0.85513690     0.09800
C684        C  0.63916778  0.16433591  0.76457538     0.35700
C685        C  0.75044428  0.25513538  0.84722982     0.39100
C686        C  0.60078204  0.17751833  0.87446483    -0.04400
C687        C  0.57775330  0.15391160  0.89895906     0.02700
C688        C  0.59293332  0.12144559  0.90298957    -0.04000
C689        C  0.63332433  0.11426066  0.88452087    -0.00300
C690        C  0.65668824  0.13836211  0.86160949    -0.02800
C691        C  0.58461024  0.21028251  0.86956481     0.36400
C692        C  0.65229138  0.08239125  0.88936033     0.40000
C693        C  0.53844655  0.16356399  0.91950676     0.39200
C694        C  0.69901003  0.13135802  0.84526429     0.36100
C695        C  0.68898964  0.22084554  0.89343156     0.36800
C696        C  0.68352084  0.20834698  0.71244904     0.40000
N697        N  0.50723017  0.17148286  0.93592098    -0.38000
N698        N  0.57177412  0.23646153  0.86610674    -0.39600
N699        N  0.66786011  0.05709940  0.89239912    -0.37400
N700        N  0.73285305  0.12596738  0.83250118    -0.39800
N701        N  0.61887225  0.14350434  0.74933378    -0.39500
N702        N  0.67531255  0.20363519  0.67698430    -0.37200
N703        N  0.77559963  0.26736106  0.86943707    -0.38200
N704        N  0.68791474  0.22315603  0.93015447    -0.39900
C705        C  0.11602325  0.36776905  0.16498342    -0.04800
C706        C  0.14667819  0.34918194  0.14330068     0.09300
C707        C  0.15462372  0.35556384  0.09964335    -0.02200
C708        C  0.13149091  0.37971368  0.07765186    -0.00500
C709        C  0.09979299  0.39727043  0.09893297    -0.04100
C710        C  0.09301467  0.39194408  0.14292721     0.02900
C711        C  0.17450335  0.32603198  0.16774252     0.09800
C712        C  0.18830568  0.33851594  0.07794700     0.35700
C713        C  0.06295922  0.41189154  0.16570544     0.39100
C714        C  0.17200682  0.29224734  0.16102227    -0.04400
C715        C  0.19659110  0.27058012  0.18635307     0.02700
C716        C  0.22382327  0.28236258  0.22058526    -0.04000
C717        C  0.23119360  0.31748416  0.22054148    -0.00300
C718        C  0.20546098  0.33854183  0.19589908    -0.02800
C719        C  0.14260577  0.27960643  0.12874939     0.36400
C720        C  0.26847508  0.33358508  0.23932577     0.40000
C721        C  0.18998554  0.23612898  0.17795036     0.39200
C722        C  0.21266181  0.37380245  0.19734873     0.36100
C723        C  0.10954850  0.36321937  0.21047538     0.36800
C724        C  0.14324557  0.38871392  0.03434452     0.40000
N725        N  0.18259107  0.20934979  0.16857313    -0.38000
N726        N  0.11956566  0.26956616  0.10272818    -0.39600
N727        N  0.29799960  0.34814806  0.25199786    -0.37400
N728        N  0.21850575  0.40177294  0.19823751    -0.39800
N729        N  0.21512283  0.32478464  0.06074929    -0.39500
N730        N  0.15336602  0.39626537  0.00012201    -0.37200
N731        N  0.03899520  0.42783094  0.18375209    -0.38200
N732        N  0.10460047  0.36029216  0.24687937    -0.39900
C733        C  0.18685869  0.71681844  0.15825746    -0.04800
C734        C  0.16414300  0.69103856  0.17789987     0.09300
C735        C  0.16552859  0.68767446  0.22236064    -0.02200
C736        C  0.18780477  0.71101369  0.24752218    -0.00500
C737        C  0.21384277  0.73692206  0.22840869    -0.04100
C738        C  0.21491057  0.73710980  0.18220726     0.02900
C739        C  0.14100412  0.66608790  0.15121247     0.09800
C740        C  0.14304164  0.66013140  0.24237298     0.35700
C741        C  0.24771302  0.75345550  0.15691062     0.39100
C742        C  0.16458463  0.64361002  0.12746083    -0.04400
C743        C  0.14309005  0.62007978  0.10223710     0.02700
C744        C  0.09778582  0.61805744  0.10166549    -0.04000
C745        C  0.07427619  0.64100120  0.12486165    -0.00300
C746        C  0.09581212  0.66510134  0.14918214    -0.02800
C747        C  0.21112599  0.64476074  0.12898561     0.36400
C748        C  0.02786693  0.63960058  0.12484807     0.40000
C749        C  0.16771584  0.59907042  0.07518367     0.39200
C750        C  0.07136768  0.68892727  0.17211798     0.36100
C751        C  0.18256890  0.72156693  0.11235146     0.36800
C752        C  0.18048373  0.70870287  0.29313461     0.40000
N753        N  0.18763419  0.58277774  0.05323054    -0.38000
N754        N  0.24823486  0.64586029  0.13013390    -0.39600
N755        N  0.99081236  0.63925375  0.12561788    -0.37400
N756        N  0.05145738  0.70773429  0.19029315    -0.39800
N757        N  0.12508169  0.63815169  0.25811301    -0.39500
N758        N  0.17228710  0.70554817  0.32891153    -0.37200
N759        N  0.27366847  0.76484207  0.13474096    -0.38200
N760        N  0.17901281  0.72539957  0.07589801    -0.39900
C761        C  0.78827541  0.69292201  0.15440439    -0.04800
C762        C  0.83218192  0.69168739  0.16391947     0.09300
C763        C  0.84992714  0.71380128  0.19313557    -0.02200
C764        C  0.82366822  0.73617661  0.21455103    -0.00500
C765        C  0.77718846  0.73398615  0.21149404    -0.04100
C766        C  0.76088541  0.71309360  0.17795504     0.02900
C767        C  0.85953978  0.66705790  0.14234919     0.09800
C768        C  0.89617464  0.71431788  0.19969631     0.35700
C769        C  0.71549821  0.70856520  0.16925482     0.39100
C770        C  0.87128471  0.67147793  0.09931638    -0.04400
C771        C  0.89202643  0.64643233  0.07728367     0.02700
C772        C  0.90134439  0.61640266  0.09823459    -0.04000
C773        C  0.89154242  0.61301818  0.14221750    -0.00300
C774        C  0.87157480  0.63839244  0.16416712    -0.02800
C775        C  0.86267132  0.70229430  0.07801041     0.36400
C776        C  0.90360475  0.58410728  0.16607929     0.40000
C777        C  0.90331133  0.65209142  0.03299635     0.39200
C778        C  0.86529628  0.63533122  0.20982799     0.36100
C779        C  0.77070221  0.67156692  0.12158149     0.36800
C780        C  0.84693459  0.76338116  0.23359427     0.40000
N781        N  0.91240992  0.65765563  0.99790985    -0.38000
N782        N  0.85601549  0.72696541  0.06121314    -0.39600
N783        N  0.91274203  0.56137939  0.18603284    -0.37400
N784        N  0.86186353  0.63238170  0.24640021    -0.39800
N785        N  0.93297315  0.71460566  0.20480334    -0.39500
N786        N  0.86738229  0.78495510  0.24679482    -0.37200
N787        N  0.68038842  0.70243085  0.15962633    -0.38200
N788        N  0.75685470  0.65464607  0.09535596    -0.39900
C789        C  0.12545615  0.64096691  0.83506140    -0.04800
C790        C  0.14237984  0.66829688  0.85669145     0.09300
C791        C  0.13573191  0.67135082  0.90086873    -0.02200
C792        C  0.11271998  0.64677157  0.92354875    -0.00500
C793        C  0.09582654  0.61906807  0.90193408    -0.04100
C794        C  0.10131908  0.61694641  0.85722522     0.02900
C795        C  0.16748710  0.69356992  0.83214862     0.09800
C796        C  0.15317791  0.69948412  0.92322586     0.35700
C797        C  0.07966373  0.59157164  0.83289651     0.39100
C798        C  0.14612485  0.71657705  0.80709937    -0.04400
C799        C  0.16901062  0.73732569  0.77841283     0.02700
C800        C  0.21550013  0.73807731  0.77754563    -0.04000
C801        C  0.23598720  0.71313449  0.80320618    -0.00300
C802        C  0.21203468  0.69147024  0.82965388    -0.02800
C803        C  0.09952629  0.71766149  0.80961114     0.36400
C804        C  0.28219236  0.70981040  0.80553540     0.40000
C805        C  0.14225047  0.75379119  0.74751220     0.39200
C806        C  0.23344683  0.66682634  0.85526438     0.36100
C807        C  0.13341233  0.63744355  0.78975469     0.36800
C808        C  0.10732155  0.65003773  0.96921842     0.40000
N809        N  0.11877854  0.76546018  0.72338479    -0.38000
N810        N  0.06249756  0.71841862  0.81149565    -0.39600
N811        N  0.31849548  0.70517953  0.80938820    -0.37400
N812        N  0.25046524  0.64729869  0.87575268    -0.39800
N813        N  0.16691560  0.72164246  0.94179522    -0.39500
N814        N  0.10311391  0.65321653  0.00556097    -0.37200
N815        N  0.06204534  0.57242042  0.81195435    -0.38200
N816        N  0.14007057  0.63462305  0.75373138    -0.39900
C817        C  0.79460552  0.67681536  0.81391491    -0.04800
C818        C  0.82437153  0.68983942  0.84285635     0.09300
C819        C  0.83147433  0.72368676  0.84385732    -0.02200
C820        C  0.80708994  0.74488739  0.81760275    -0.00500
C821        C  0.77353596  0.73259421  0.78958696    -0.04100
C822        C  0.77222192  0.69731733  0.78542782     0.02900
C823        C  0.85115616  0.66711933  0.86907226     0.09800
C824        C  0.86352138  0.73676693  0.87329700     0.35700
C825        C  0.75526990  0.68030123  0.74861830     0.39100
C826        C  0.89415432  0.66172004  0.85755013    -0.04400
C827        C  0.91812030  0.63805776  0.87953283     0.02700
C828        C  0.89827260  0.61786463  0.91073560    -0.04000
C829        C  0.85532890  0.62316368  0.92224480    -0.00300
C830        C  0.83230085  0.64843181  0.90245885    -0.02800
C831        C  0.91311458  0.67947337  0.82177952     0.36400
C832        C  0.83507133  0.60280290  0.95485625     0.40000
C833        C  0.96297589  0.63415929  0.86940899     0.39200
C834        C  0.78887455  0.65482514  0.91583186     0.36100
C835        C  0.78901910  0.64143592  0.81162830     0.36800
C836        C  0.81768373  0.77929559  0.82145650     0.40000
N837        N  0.99888292  0.63159253  0.86138138    -0.38000
N838        N  0.92806742  0.69351759  0.79308254    -0.39600
N839        N  0.81907498  0.58640754  0.98079705    -0.37400
N840        N  0.75423428  0.65987132  0.92661554    -0.39800
N841        N  0.88914150  0.74702058  0.89670702    -0.39500
N842        N  0.82964714  0.80587113  0.82682176    -0.37200
N843        N  0.74364655  0.66481345  0.72004856    -0.38200
N844        N  0.78451301  0.61337149  0.80993082    -0.39900
C845        C  0.12433195  0.37635254  0.83397884    -0.04800
C846        C  0.13419289  0.34671119  0.85451193     0.09300
C847        C  0.11886470  0.34024748  0.89593366    -0.02200
C848        C  0.09517923  0.36389378  0.91757455    -0.00500
C849        C  0.08798347  0.39500795  0.89837670    -0.04100
C850        C  0.10099663  0.40021423  0.85545368     0.02900
C851        C  0.15970612  0.32194048  0.83138562     0.09800
C852        C  0.12772578  0.30916137  0.91635335     0.35700
C853        C  0.08811560  0.42900823  0.83183819     0.39100
C854        C  0.20445120  0.32451874  0.83074234    -0.04400
C855        C  0.22882179  0.30339144  0.80545201     0.02700
C856        C  0.20870816  0.27785165  0.78015757    -0.04000
C857        C  0.16204838  0.27762753  0.77987148    -0.00300
C858        C  0.13875808  0.29801266  0.80713678    -0.02800
C859        C  0.22558051  0.34828468  0.85836185     0.36400
C860        C  0.13542761  0.26073899  0.74876050     0.40000
C861        C  0.27496746  0.30783416  0.80892220     0.39200
C862        C  0.09217096  0.29514111  0.80949030     0.36100
C863        C  0.13808153  0.38209774  0.79030764     0.36800
C864        C  0.07807039  0.35549064  0.95932694     0.40000
N865        N  0.31108797  0.31354254  0.81436358    -0.38000
N866        N  0.24223202  0.36689277  0.88085930    -0.39600
N867        N  0.11217038  0.24883528  0.72426900    -0.37400
N868        N  0.05518852  0.29269310  0.81159870    -0.39800
N869        N  0.13471437  0.28439572  0.93274215    -0.39500
N870        N  0.06413972  0.34837948  0.99237643    -0.37200
N871        N  0.07781683  0.45143049  0.81187099    -0.38200
N872        N  0.14911328  0.38651023  0.75550072    -0.39900
C873        C  0.80013776  0.33948759  0.20371946    -0.04800
C874        C  0.82158954  0.32434717  0.17048208     0.09300
C875        C  0.82057553  0.29022891  0.16825450    -0.02200
C876        C  0.79755329  0.27111558  0.19879089    -0.00500
C877        C  0.76940248  0.28594373  0.22918442    -0.04100
C878        C  0.77457748  0.32104020  0.23283520     0.02900
C879        C  0.84807449  0.34479897  0.14006773     0.09800
C880        C  0.84053524  0.27484222  0.13206292     0.35700
C881        C  0.75893815  0.33957654  0.26826747     0.39100
C882        C  0.89325785  0.34520498  0.14346052    -0.04400
C883        C  0.91801700  0.36785521  0.11935451     0.02700
C884        C  0.89769446  0.39215923  0.09473649    -0.04000
C885        C  0.85263906  0.39092117  0.08996934    -0.00300
C886        C  0.82809569  0.36653092  0.11125241    -0.02800
C887        C  0.91420897  0.32326898  0.17320585     0.36400
C888        C  0.83154245  0.41441946  0.06246577     0.40000
C889        C  0.96431607  0.36608490  0.12029419     0.39200
C890        C  0.78223886  0.36417048  0.10370315     0.36100
C891        C  0.80558543  0.37469299  0.20848450     0.36800
C892        C  0.80157164  0.23610208  0.19534429     0.40000
N893        N  0.00117606  0.36362490  0.12053951    -0.38000
N894        N  0.93076759  0.30579636  0.19705326    -0.39600
N895        N  0.81474885  0.43318546  0.04058036    -0.37400
N896        N  0.74578506  0.36277925  0.09663644    -0.39800
N897        N  0.85575408  0.26270442  0.10281099    -0.39500
N898        N  0.80753492  0.20864387  0.19035397    -0.37200
N899        N  0.74853982  0.35601597  0.29592327    -0.38200
N900        N  0.81019726  0.40262975  0.21207306    -0.39900
C901        C  0.86715030  0.34444072  0.89078114    -0.04800
C902        C  0.86397921  0.34861046  0.84617684     0.09300
C903        C  0.88538080  0.37534194  0.82626672    -0.02200
C904        C  0.90800376  0.39859822  0.85106304    -0.00500
C905        C  0.90772846  0.39606172  0.89611747    -0.04100
C906        C  0.88783124  0.36850046  0.91576832     0.02900
C907        C  0.83544708  0.32635802  0.82042173     0.09800
C908        C  0.88375515  0.37897986  0.78021452     0.35700
C909        C  0.88684231  0.36534582  0.96186245     0.39100
C910        C  0.79137506  0.33195566  0.81818250    -0.04400
C911        C  0.76362552  0.31121891  0.79430605     0.02700
C912        C  0.77962562  0.28399275  0.77049271    -0.04000
C913        C  0.82614188  0.28234355  0.76891539    -0.00300
C914        C  0.85272677  0.30166745  0.79590273    -0.02800
C915        C  0.77438627  0.35918542  0.84166870     0.36400
C916        C  0.84942215  0.26496100  0.73673924     0.40000
C917        C  0.71831983  0.31803578  0.79744087     0.39200
C918        C  0.89894044  0.29725730  0.79704716     0.36100
C919        C  0.84969046  0.31525968  0.91130476     0.36800
C920        C  0.93266980  0.42450378  0.83006957     0.40000
N921        N  0.68310914  0.32564308  0.80183424    -0.38000
N922        N  0.76112129  0.38088861  0.86043332    -0.39600
N923        N  0.87001041  0.25231302  0.71144371    -0.37400
N924        N  0.93568645  0.29383146  0.79773259    -0.39800
N925        N  0.88245300  0.38170446  0.74346335    -0.39500
N926        N  0.95271050  0.44490109  0.81319713    -0.37200
N927        N  0.88568070  0.36246840  0.99856847    -0.38200
N928        N  0.83704721  0.29213358  0.92907697    -0.39900
C929        C  0.65412935  0.69490022  0.72244702    -0.04800
C930        C  0.65856039  0.69601385  0.67794790     0.09300
C931        C  0.68570870  0.71978203  0.65946645    -0.02200
C932        C  0.71177872  0.74050019  0.68512090    -0.00500
C933        C  0.71180928  0.73759039  0.73122220    -0.04100
C934        C  0.67906673  0.71591591  0.74880932     0.02900
C935        C  0.63513516  0.67160606  0.65041278     0.09800
C936        C  0.68585090  0.72338454  0.61318432     0.35700
C937        C  0.67368320  0.71126547  0.79440200     0.39100
C938        C  0.59015762  0.67263777  0.64553809    -0.04400
C939        C  0.56805203  0.64866018  0.62140008     0.02700
C940        C  0.59069596  0.62319936  0.60201907    -0.04000
C941        C  0.63594329  0.62284947  0.60598379    -0.00300
C942        C  0.65800316  0.64712527  0.62948837    -0.02800
C943        C  0.56651446  0.69839711  0.66559778     0.36400
C944        C  0.66055223  0.59827633  0.58465143     0.40000
C945        C  0.52177958  0.64991499  0.61801035     0.39200
C946        C  0.70452667  0.64705081  0.63119260     0.36100
C947        C  0.62585840  0.67011323  0.74142704     0.36800
C948        C  0.73313217  0.76676166  0.66193755     0.40000
N949        N  0.48488760  0.65172907  0.61575431    -0.38000
N950        N  0.54754232  0.71874471  0.68184223    -0.39600
N951        N  0.68124177  0.57934925  0.56762129    -0.37400
N952        N  0.74163677  0.64676313  0.63121306    -0.39800
N953        N  0.68600272  0.72636465  0.57644295    -0.39500
N954        N  0.74733319  0.78801475  0.64158372    -0.37200
N955        N  0.66765715  0.70545867  0.83008725    -0.38200
N956        N  0.60343366  0.65027920  0.75638593    -0.39900
C957        C  0.35160574  0.37936461  0.66926577    -0.04800
C958        C  0.34337198  0.34917284  0.64970957     0.09300
C959        C  0.36218989  0.34228018  0.61025679    -0.02200
C960        C  0.38918147  0.36571921  0.59004413    -0.00500
C961        C  0.39517999  0.39728363  0.60800488    -0.04100
C962        C  0.37739634  0.40327144  0.64879344     0.02900
C963        C  0.31711634  0.32387714  0.67279917     0.09800
C964        C  0.35323838  0.31107852  0.59026467     0.35700
C965        C  0.38692470  0.43318548  0.67156604     0.39100
C966        C  0.27250253  0.32620203  0.67413006    -0.04400
C967        C  0.24765683  0.30414146  0.69922867     0.02700
C968        C  0.26736867  0.27886277  0.72475379    -0.04000
C969        C  0.31395917  0.27958865  0.72532274    -0.00300
C970        C  0.33763593  0.30022988  0.69737127    -0.02800
C971        C  0.25208830  0.35110527  0.64811898     0.36400
C972        C  0.33997100  0.26377274  0.75761682     0.40000
C973        C  0.20152319  0.30674453  0.69464179     0.39200
C974        C  0.38423083  0.29849165  0.69543205     0.36100
C975        C  0.33346799  0.38572703  0.71090455     0.36800
C976        C  0.41070039  0.35666488  0.55111302     0.40000
N977        N  0.16537569  0.31034612  0.68803541    -0.38000
N978        N  0.23616339  0.37095766  0.62726188    -0.39600
N979        N  0.36239515  0.25273697  0.78325727    -0.37400
N980        N  0.42121437  0.29710979  0.69366631    -0.39800
N981        N  0.34597479  0.28628567  0.57414829    -0.39500
N982        N  0.42792323  0.34905589  0.52027542    -0.37200
N983        N  0.39366375  0.45648538  0.69118791    -0.38200
N984        N  0.31889253  0.39077227  0.74398480    -0.39900
C985        C  0.59383965  0.34811682  0.37699500    -0.04800
C986        C  0.63833397  0.35240852  0.37003193     0.09300
C987        C  0.65981566  0.38025067  0.38654678    -0.02200
C988        C  0.63673473  0.40423494  0.40820087    -0.00500
C989        C  0.59164533  0.40102737  0.41279414    -0.04100
C990        C  0.57047394  0.37249000  0.39750028     0.02900
C991        C  0.66162477  0.32879738  0.34244744     0.09800
C992        C  0.70578157  0.38448311  0.38131946     0.35700
C993        C  0.52433094  0.36846285  0.40130471     0.39100
C994        C  0.65432152  0.32883342  0.29834258    -0.04400
C995        C  0.67649877  0.30743943  0.27143812     0.02700
C996        C  0.70770601  0.28487262  0.28810580    -0.04000
C997        C  0.70908263  0.28231160  0.33421069    -0.00300
C998        C  0.68846190  0.30527653  0.36032781    -0.02800
C999        C  0.62400642  0.35182708  0.28034662     0.36400
C1000       C  0.72429625  0.25372252  0.35663647     0.40000
C1001       C  0.66615917  0.31049686  0.22655839     0.36000
C1002       C  0.69287266  0.30365250  0.40648101     0.36100
C1003       C  0.57194647  0.31864310  0.36239930     0.36800
C1004       C  0.65994619  0.43174041  0.42674064     0.40000
N1005       N  0.65400508  0.31503652  0.19212013    -0.38000
N1006       N  0.59960038  0.36989949  0.26618123    -0.39600
N1007       N  0.73424020  0.23079893  0.37580407    -0.37400
N1008       N  0.69627328  0.30242207  0.44322627    -0.39800
N1009       N  0.74248500  0.38843168  0.37801383    -0.39500
N1010       N  0.67901573  0.45340543  0.44151506    -0.37200
N1011       N  0.48755850  0.36488407  0.40424340    -0.38200
N1012       N  0.55447964  0.29514810  0.35076076    -0.39900
C1013       C  0.29219936  0.71527876  0.35936018    -0.04800
C1014       C  0.31531322  0.69092423  0.33952487     0.09300
C1015       C  0.31425818  0.68834560  0.29517711    -0.02200
C1016       C  0.29168791  0.71107606  0.26998706    -0.00500
C1017       C  0.26676392  0.73654547  0.28898325    -0.04100
C1018       C  0.26581664  0.73629500  0.33519001     0.02900
C1019       C  0.33920492  0.66657299  0.36564920     0.09800
C1020       C  0.33808398  0.66248117  0.27530763     0.35700
C1021       C  0.23562077  0.75410108  0.36027690     0.39100
C1022       C  0.31695731  0.63970762  0.38414714    -0.04400
C1023       C  0.33943619  0.61607487  0.40776261     0.02700
C1024       C  0.38467203  0.61870432  0.41201701    -0.04000
C1025       C  0.40660614  0.64611881  0.39405818    -0.00300
C1026       C  0.38396474  0.66987605  0.37098414    -0.02800
C1027       C  0.27086473  0.63620232  0.37820440     0.36400
C1028       C  0.45271030  0.65003724  0.39853791     0.40000
C1029       C  0.31536391  0.59012250  0.42924604     0.39200
C1030       C  0.40721954  0.69741058  0.35213232     0.36100
C1031       C  0.29519354  0.71818348  0.40552753     0.36800
C1032       C  0.29819844  0.70872304  0.22437521     0.40000
N1033       N  0.29508606  0.57001849  0.44640416    -0.38000
N1034       N  0.23415422  0.63344586  0.37326431    -0.39600
N1035       N  0.48936215  0.65404415  0.40214000    -0.37400
N1036       N  0.42710450  0.71886511  0.33748676    -0.39800
N1037       N  0.35725636  0.64194379  0.25972651    -0.39500
N1038       N  0.30610135  0.70492923  0.18878787    -0.37200
N1039       N  0.21187376  0.76690010  0.38245610    -0.38200
N1040       N  0.29787126  0.72054540  0.44219238    -0.39900
C1041       C  0.65789299  0.72453163  0.32603304    -0.04800
C1042       C  0.65996781  0.69047870  0.32525911     0.09300
C1043       C  0.69113500  0.67601337  0.30029364    -0.02200
C1044       C  0.71903665  0.69517189  0.27413943    -0.00500
C1045       C  0.71604661  0.73043517  0.27142512    -0.04100
C1046       C  0.68649289  0.74436929  0.30133781     0.02900
C1047       C  0.63071391  0.66928547  0.35229406     0.09800
C1048       C  0.69528483  0.64065419  0.30276690     0.35700
C1049       C  0.68246643  0.77923912  0.30650869     0.39100
C1050       C  0.59767252  0.65030746  0.33305718    -0.04400
C1051       C  0.57404054  0.62705341  0.35739357     0.02700
C1052       C  0.58306333  0.62269618  0.40122898    -0.04000
C1053       C  0.61523711  0.64228399  0.42070846    -0.00300
C1054       C  0.63883286  0.66561483  0.39642500    -0.02800
C1055       C  0.58866285  0.65410454  0.28789963     0.36400
C1056       C  0.62583689  0.63709094  0.46522901     0.40000
C1057       C  0.54015736  0.60771685  0.33735544     0.39200
C1058       C  0.67249325  0.68510918  0.41655419     0.36100
C1059       C  0.62440719  0.73916375  0.35107048     0.36800
C1060       C  0.75268696  0.67673993  0.25502188     0.40000
N1061       N  0.51292367  0.59249781  0.32139661    -0.38000
N1062       N  0.58130466  0.65674679  0.25184228    -0.39600
N1063       N  0.63460896  0.63285607  0.50068284    -0.37400
N1064       N  0.69916894  0.70080675  0.43265490    -0.39800
N1065       N  0.69877004  0.61262267  0.30475467    -0.39500
N1066       N  0.77838505  0.65979803  0.24164735    -0.37200
N1067       N  0.67677629  0.80643427  0.31364990    -0.38200
N1068       N  0.59739596  0.75066690  0.37067787    -0.39900
C1069       C  0.64851782  0.30599250  0.69083436    -0.04800
C1070       C  0.66993578  0.32912698  0.66524892     0.09300
C1071       C  0.71470874  0.33100617  0.66549211    -0.02200
C1072       C  0.73870998  0.30894088  0.69045307    -0.00500
C1073       C  0.71797216  0.28452323  0.71756009    -0.04100
C1074       C  0.67151355  0.28591367  0.71930581     0.02900
C1075       C  0.64467109  0.35431461  0.64221432     0.09800
C1076       C  0.73611776  0.35525144  0.63833497     0.35700
C1077       C  0.64544309  0.27161816  0.75317468     0.39100
C1078       C  0.63343057  0.38275643  0.66386263    -0.04400
C1079       C  0.60619108  0.40541289  0.64431122     0.02700
C1080       C  0.59225537  0.40091745  0.60163293    -0.04000
C1081       C  0.60332105  0.37197162  0.58019289    -0.00300
C1082       C  0.62929736  0.34874888  0.60060118    -0.02800
C1083       C  0.64999736  0.38858760  0.70654289     0.36400
C1084       C  0.58819358  0.36560361  0.53720612     0.40000
C1085       C  0.59024479  0.43193665  0.66958424     0.39200
C1086       C  0.64031310  0.31912459  0.57867767     0.36100
C1087       C  0.60181401  0.30415761  0.68918038     0.36800
C1088       C  0.78479350  0.31083205  0.68444374     0.40000
N1089       N  0.57735456  0.45246746  0.69070717    -0.38000
N1090       N  0.66361735  0.39325424  0.74038056    -0.39600
N1091       N  0.57595965  0.35978879  0.50318137    -0.37400
N1092       N  0.64877441  0.29564573  0.56068166    -0.39800
N1093       N  0.75301210  0.37445192  0.61649170    -0.39500
N1094       N  0.82092623  0.31419289  0.67690633    -0.37200
N1095       N  0.62294829  0.26160874  0.77976419    -0.38200
N1096       N  0.56472786  0.30275404  0.68754124    -0.39900
C1097       C  0.36934999  0.64147828  0.67545272    -0.04800
C1098       C  0.34843004  0.66662390  0.65296061     0.09300
C1099       C  0.35106093  0.66807253  0.60811896    -0.02200
C1100       C  0.37389420  0.64440616  0.58575875    -0.00500
C1101       C  0.39433958  0.61882349  0.60797752    -0.04100
C1102       C  0.39224068  0.61770955  0.65313437     0.02900
C1103       C  0.32303989  0.69143027  0.67642391     0.09800
C1104       C  0.32968725  0.69376694  0.58470546     0.35700
C1105       C  0.41485144  0.59286578  0.67701151     0.39100
C1106       C  0.34385306  0.71758379  0.69673481    -0.04400
C1107       C  0.32064272  0.73946357  0.72211551     0.02700
C1108       C  0.27407390  0.73881178  0.72261562    -0.04000
C1109       C  0.25393048  0.71217215  0.69933902    -0.00300
C1110       C  0.27831019  0.68845519  0.67841830    -0.02800
C1111       C  0.39017858  0.72132434  0.69230985     0.36400
C1112       C  0.20776165  0.70876656  0.69445246     0.40000
C1113       C  0.34724781  0.75825607  0.75111823     0.39200
C1114       C  0.25717812  0.66077914  0.65786233     0.36100
C1115       C  0.36707583  0.63995413  0.72164809     0.36800
C1116       C  0.37491467  0.64606800  0.53963001     0.40000
N1117       N  0.37076020  0.77130048  0.77431528    -0.38000
N1118       N  0.42696789  0.72435900  0.68857224    -0.39600
N1119       N  0.17145953  0.70414724  0.68864536    -0.37400
N1120       N  0.24059527  0.63869931  0.64140669    -0.39800
N1121       N  0.31264961  0.71394854  0.56540274    -0.39500
N1122       N  0.37526760  0.64804728  0.50283696    -0.37200
N1123       N  0.43290669  0.57336593  0.69660655    -0.38200
N1124       N  0.36542952  0.63864777  0.75849065    -0.39900
C1125       C  0.34548900  0.34816269  0.41119577    -0.04800
C1126       C  0.35169968  0.34433028  0.36684840     0.09300
C1127       C  0.37897503  0.36688025  0.34482293    -0.02200
C1128       C  0.39894273  0.39305526  0.36676447    -0.00500
C1129       C  0.39088203  0.39754940  0.41050979    -0.04100
C1130       C  0.36278982  0.37575164  0.43216766     0.02900
C1131       C  0.32565666  0.31906381  0.34267295     0.09800
C1132       C  0.38670896  0.36339612  0.29956005     0.35700
C1133       C  0.34792750  0.38366369  0.47444725     0.39100
C1134       C  0.28079570  0.32098482  0.34111973    -0.04400
C1135       C  0.25580599  0.29870251  0.31671398     0.02700
C1136       C  0.27541379  0.27641483  0.28750419    -0.04000
C1137       C  0.32140116  0.27331371  0.29260691    -0.00300
C1138       C  0.34540962  0.29397119  0.32052726    -0.02800
C1139       C  0.26026065  0.34809716  0.36194081     0.36400
C1140       C  0.34580461  0.24790151  0.27308292     0.40000
C1141       C  0.20981340  0.30231214  0.31990138     0.39200
C1142       C  0.39116929  0.28939279  0.32690870     0.36100
C1143       C  0.32080483  0.32389735  0.43524468     0.36800
C1144       C  0.42771134  0.41555010  0.34425064     0.40000
N1145       N  0.17397215  0.30743220  0.32567969    -0.38000
N1146       N  0.24414450  0.36979517  0.37831021    -0.39600
N1147       N  0.36731051  0.22787467  0.25953015    -0.37400
N1148       N  0.42757150  0.28582233  0.33195881    -0.39800
N1149       N  0.39367771  0.36066017  0.26357760    -0.39500
N1150       N  0.45064618  0.43351606  0.32636873    -0.37200
N1151       N  0.33481704  0.39052629  0.50753666    -0.38200
N1152       N  0.30120286  0.30455631  0.45453322    -0.39900
loop_ 
_geom_bond_atom_site_label_1 
_geom_bond_atom_site_label_2 
_geom_bond_distance 
_geom_bond_site_symmetry_2 
_ccdc_geom_bond_type 
O1          Zr13   2.440       .  S
O1            C3   1.288       .  A
O2          Zr39   2.416       .  S
O2            C3   1.285       .  A
C3          C961   1.499       .  S
O4          Zr16   2.437       .  S
O4            C6   1.287       .  A
O5          Zr40   2.427       .  S
O5            C6   1.288       .  A
C6         C1024   1.488       .  S
O7          Zr16   2.441       .  S
O7            C9   1.287       .  A
O8          Zr39   2.430       .  S
O8            C9   1.287       .  A
C9         C1129   1.482       .  S
O10         Zr13   2.439       .  S
O10          C12   1.287       .  A
O11         Zr40   2.442       .  S
O11          C12   1.291       .  A
C12        C1101   1.494       .  S
Zr13         O14   2.434       .  S
Zr13         O15   2.432       .  S
Zr13         O19   2.376       .  S
Zr13         O20   2.372       .  S
Zr13         O43   2.364       .  S
Zr13         O45   2.361       .  S
O14          H57   0.991       .  S
O15          H56   0.990       .  S
O15          H60   0.988       .  S
Zr16         O17   2.432       .  S
Zr16         O18   2.434       .  S
Zr16         O20   2.375       .  S
Zr16         O19   2.369       .  S
Zr16         O44   2.372       .  S
Zr16         O46   2.375       .  S
O17          H58   0.990       .  S
O17          H61   0.990       .  S
O18          H51   0.991       .  S
O19         Zr39   2.378       .  S
O20         Zr40   2.387       .  S
O20          H47   0.966       .  S
O21         Zr33   2.445       .  S
O21          C23   1.289       .  A
O22         Zr40   2.433       .  S
O22          C23   1.289       .  A
C23         C940   1.493       .  S
O24         Zr36   2.450       .  S
O24          C26   1.290       .  A
O25         Zr39   2.425       .  S
O25          C26   1.287       .  A
C26         C989   1.496       .  S
O27         Zr36   2.439       .  S
O27          C29   1.287       .  A
O28         Zr40   2.439       .  S
O28          C29   1.289       .  A
C29        C1052   1.485       .  S
O30         Zr33   2.442       .  S
O30          C32   1.289       .  A
O31         Zr39   2.415       .  S
O31          C32   1.285       .  A
C32        C1080   1.490       .  S
Zr33         O34   2.431       .  S
Zr33         O35   2.431       .  S
Zr33         O41   2.372       .  S
Zr33         O42   2.369       .  S
Zr33         O45   2.367       .  S
Zr33         O43   2.369       .  S
O34          H54   0.989       .  S
O34          H59   0.990       .  S
O35          H55   0.990       .  S
Zr36         O37   2.433       .  S
Zr36         O38   2.436       .  S
Zr36         O42   2.367       .  S
Zr36         O41   2.373       .  S
Zr36         O46   2.376       .  S
Zr36         O44   2.372       .  S
O37          H53   0.990       .  S
O38          H52   0.990       .  S
O38          H62   0.990       .  S
Zr39         O42   2.378       .  S
Zr39         O44   2.382       .  S
Zr39         O45   2.379       .  S
Zr40         O41   2.389       .  S
Zr40         O43   2.374       .  S
Zr40         O46   2.386       .  S
O41          H49   0.966       .  S
O44          H48   0.966       .  S
O45          H50   0.965       .  S
O63         Zr75   2.444       .  S
O63          C65   1.289       .  A
O64        Zr101   2.423   1_556  S
O64          C65   1.287       .  A
C65         C905   1.487       .  S
O66         Zr78   2.446       .  S
O66          C68   1.290       .  A
O67        Zr102   2.422   1_556  S
O67          C68   1.286       .  A
C68         C793   1.490       .  S
O69         Zr78   2.464       .  S
O69          C71   1.293       .  A
O70        Zr101   2.411   1_456  S
O70          C71   1.283       .  A
C71         C849   1.505       .  S
O72         Zr75   2.447       .  S
O72          C74   1.289       .  A
O73        Zr102   2.415   1_656  S
O73          C74   1.284       .  A
C74         C828   1.479       .  S
Zr75         O76   2.435       .  S
Zr75         O77   2.436       .  S
Zr75         O81   2.371       .  S
Zr75         O82   2.369       .  S
Zr75        O105   2.367   1_556  S
Zr75        O107   2.370   1_556  S
O76         H119   0.989       .  S
O77         H118   0.991       .  S
O77         H122   0.989       .  S
Zr78         O79   2.426       .  S
Zr78         O80   2.434       .  S
Zr78         O82   2.375   1_455  S
Zr78         O81   2.360   1_455  S
Zr78        O106   2.368   1_556  S
Zr78        O108   2.381       .  S
O79         H120   0.990       .  S
O79         H123   0.989       .  S
O80         H113   0.990       .  S
O81        Zr101   2.372   1_556  S
O82        Zr102   2.381   1_656  S
O82         H109   0.965       .  S
O83         Zr95   2.465       .  S
O83          C85   1.293       .  A
O84        Zr102   2.418   1_655  S
O84          C85   1.285       .  A
C85         C772   1.503       .  S
O86         Zr98   2.428       .  S
O86          C88   1.285       .  A
O87        Zr101   2.434   1_455  S
O87          C88   1.288       .  A
C88         C709   1.478       .  S
O89         Zr98   2.447       .  S
O89          C91   1.289       .  A
O90        Zr102   2.426       .  S
O90          C91   1.286       .  A
C91         C744   1.487       .  S
O92         Zr95   2.455       .  S
O92          C94   1.291       .  A
O93        Zr101   2.415       .  S
O93          C94   1.284       .  A
C94         C884   1.484       .  S
Zr95         O96   2.434       .  S
Zr95         O97   2.435       .  S
Zr95        O103   2.372   1_655  S
Zr95        O104   2.370   1_655  S
Zr95        O107   2.376       .  S
Zr95        O105   2.375       .  S
O96         H116   0.989       .  S
O96         H121   0.989       .  S
O97         H117   0.991       .  S
Zr98         O99   2.434       .  S
Zr98        O100   2.433       .  S
Zr98        O104   2.379       .  S
Zr98        O103   2.372       .  S
Zr98        O108   2.368   1_554  S
Zr98        O106   2.376       .  S
O99         H115   0.989       .  S
O100        H114   0.990       .  S
O100        H124   0.990       .  S
Zr101       O104   2.380   1_655  S
Zr101       O106   2.384   1_655  S
Zr101       O107   2.388       .  S
Zr102       O103   2.382       .  S
Zr102       O105   2.382   1_455  S
Zr102       O108   2.381   1_554  S
O103        H111   0.964       .  S
O106        H110   0.966   1_554  S
O107        H112   0.967       .  S
C125        C653   1.603       .  S
C125        C681   1.610       .  S
C125        C912   1.614       .  S
C125       C1073   1.603       .  S
O126       Zr138   2.437       .  S
O126        C128   1.287       .  A
O127       Zr164   2.424   1_556  S
O127        C128   1.286       .  A
C128        C688   1.507       .  S
O129       Zr141   2.407   1_565  S
O129        C131   1.281       .  A
O130       Zr165   2.435   1_556  S
O130        C131   1.287       .  A
C131        C632   1.473       .  S
O132       Zr141   2.409       .  S
O132        C134   1.281       .  A
O133       Zr164   2.444   1_556  S
O133        C134   1.290       .  A
C134        C569   1.477       .  S
O135       Zr138   2.453   1_565  S
O135        C137   1.289       .  A
O136       Zr165   2.426   1_556  S
O136        C137   1.285       .  A
C137        C541   1.523       .  S
Zr138       O139   2.432       .  S
Zr138       O140   2.437       .  S
Zr138       O144   2.378       .  S
Zr138       O145   2.365   1_545  S
Zr138       O168   2.361   1_546  S
Zr138       O170   2.369   1_556  S
O139        H182   0.989       .  S
O140        H181   0.992   1_545  S
O140        H185   0.989       .  S
Zr141       O142   2.435       .  S
Zr141       O143   2.434       .  S
Zr141       O145   2.359   1_545  S
Zr141       O144   2.369       .  S
Zr141       O169   2.370   1_556  S
Zr141       O171   2.370   1_546  S
O142        H183   0.990       .  S
O142        H186   0.989       .  S
O143        H176   0.991   1_545  S
O144       Zr164   2.381   1_556  S
O145       Zr165   2.376   1_556  S
O145        H172   0.966       .  S
O146       Zr158   2.480   1_565  S
O146        C148   1.295       .  A
O147       Zr165   2.409       .  S
O147        C148   1.284       .  A
C148        C597   1.492       .  S
O149       Zr161   2.453       .  S
O149        C151   1.290       .  A
O150       Zr164   2.435       .  S
O150        C151   1.288       .  A
C151        C485   1.490       .  S
O152       Zr161   2.440   1_565  S
O152        C154   1.289       .  A
O153       Zr165   2.411       .  S
O153        C154   1.284       .  A
C154        C513   1.482       .  S
O155       Zr158   2.465       .  S
O155        C157   1.294       .  A
O156       Zr164   2.416       .  S
O156        C157   1.285       .  A
C157        C457   1.492       .  S
Zr158       O159   2.435       .  S
Zr158       O160   2.434       .  S
Zr158       O166   2.371   1_545  S
Zr158       O167   2.379       .  S
Zr158       O170   2.372       .  S
Zr158       O168   2.371   1_545  S
O159        H179   0.991       .  S
O159        H184   0.990       .  S
O160        H180   0.989       .  S
Zr161       O162   2.432       .  S
Zr161       O163   2.438       .  S
Zr161       O167   2.368       .  S
Zr161       O166   2.379   1_545  S
Zr161       O171   2.377   1_545  S
Zr161       O169   2.369       .  S
O162        H178   0.991       .  S
O163        H177   0.991       .  S
O163        H187   0.990   1_545  S
Zr164       O167   2.387       .  S
Zr164       O169   2.377       .  S
Zr164       O170   2.392       .  S
Zr165       O166   2.394       .  S
Zr165       O168   2.376       .  S
Zr165       O171   2.382       .  S
O166        H174   0.967       .  S
O169        H173   0.967       .  S
O170        H175   0.966       .  S
C188        C429   1.611       .  S
C188        C625   1.605       .  S
C188        C800   1.606       .  S
C188       C1108   1.611       .  S
O189       Zr201   2.467       .  S
O189        C191   1.293       .  A
O190       Zr227   2.424       .  S
O190        C191   1.286       .  A
C191        C408   1.493       .  S
O192       Zr204   2.441   1_565  S
O192        C194   1.288       .  A
O193       Zr228   2.417       .  S
O193        C194   1.285       .  A
C194        C324   1.480       .  S
O195       Zr204   2.446       .  S
O195        C197   1.289       .  A
O196       Zr227   2.410       .  S
O196        C197   1.283       .  A
C197        C660   1.504       .  S
O198       Zr201   2.457   1_565  S
O198        C200   1.291       .  A
O199       Zr228   2.420       .  S
O199        C200   1.286       .  A
C200        C380   1.487       .  S
Zr201       O202   2.434       .  S
Zr201       O203   2.435       .  S
Zr201       O207   2.377       .  S
Zr201       O208   2.378   1_545  S
Zr201       O231   2.378   1_545  S
Zr201       O233   2.373       .  S
O202        H245   0.990       .  S
O203        H244   0.991   1_545  S
O203        H248   0.991   1_545  S
Zr204       O205   2.436   1_545  S
Zr204       O206   2.434       .  S
Zr204       O208   2.372   1_545  S
Zr204       O207   2.374       .  S
Zr204       O232   2.367       .  S
Zr204       O234   2.372   1_545  S
O205        H246   0.989       .  S
O205        H249   0.991       .  S
O206        H239   0.989   1_545  S
O207       Zr227   2.383       .  S
O208       Zr228   2.386       .  S
O208        H235   0.968       .  S
O209       Zr221   2.440   1_565  S
O209        C211   1.288       .  A
O210       Zr228   2.421   1_455  S
O210        C211   1.286       .  A
C211        C352   1.486       .  S
O212       Zr224   2.422       .  S
O212        C214   1.284       .  A
O213       Zr227   2.434   1_455  S
O213        C214   1.287       .  A
C214        C261   1.474       .  S
O215       Zr224   2.435   1_565  S
O215        C217   1.287       .  A
O216       Zr228   2.433   1_455  S
O216        C217   1.288       .  A
C217        C436   1.492       .  S
O218       Zr221   2.450       .  S
O218        C220   1.290       .  A
O219       Zr227   2.419   1_455  S
O219        C220   1.285       .  A
C220        C289   1.491       .  S
Zr221       O222   2.436       .  S
Zr221       O223   2.429       .  S
Zr221       O229   2.369   1_545  S
Zr221       O230   2.369       .  S
Zr221       O233   2.369   1_455  S
Zr221       O231   2.376   1_445  S
O222        H242   0.989       .  S
O222        H247   0.991   1_545  S
O223        H243   0.990       .  S
Zr224       O225   2.432       .  S
Zr224       O226   2.436       .  S
Zr224       O230   2.372       .  S
Zr224       O229   2.364   1_545  S
Zr224       O234   2.366   1_445  S
Zr224       O232   2.372   1_455  S
O225        H241   0.990       .  S
O226        H240   0.991       .  S
O226        H250   0.989       .  S
Zr227       O230   2.380   1_655  S
Zr227       O232   2.386       .  S
Zr227       O233   2.385       .  S
Zr228       O229   2.380   1_655  S
Zr228       O231   2.384       .  S
Zr228       O234   2.380       .  S
O229        H237   0.964       .  S
O232        H236   0.962       .  S
O233        H238   0.963       .  S
C251        C373   1.609       .  S
C251        C604   1.615       .  S
C251        C765   1.611       .  S
C251       C1045   1.614       .  S
C252        C296   1.615       .  S
C252        C492   1.620       .  S
C252        C716   1.610       .  S
C252       C1136   1.611       .  S
C253        C401   1.620       .  S
C253        C464   1.613       .  S
C253        C877   1.608       .  S
C253        C996   1.613       .  S
C254        C345   1.609       .  S
C254        C520   1.603       .  S
C254        C737   1.606       .  S
C254       C1017   1.605       .  S
C255        C268   1.602       .  S
C255        C576   1.605       .  S
C255        C856   1.612       .  S
C255        C968   1.602       .  S
C256        C317   1.607       .  S
C256        C548   1.619       .  S
C256        C821   1.616       .  S
C256        C933   1.606       .  S
C257        C258   1.415       .  A
C257        C262   1.406       .  A
C257        C275   1.452       .  S
C258        C263   1.498       .  S
C258        C259   1.414       .  A
C259        C260   1.409       .  A
C259        C264   1.451       .  S
C260        C261   1.410       .  A
C260        C276   1.449       .  S
C261        C262   1.410       .  A
C262        C265   1.452       .  S
C263        C266   1.401       .  A
C263        C270   1.402       .  A
C264        N281   1.157       .  T
C265        N283   1.157       .  T
C266        C267   1.410       .  A
C266        C271   1.456       .  S
C267        C268   1.448       .  A
C267        C273   1.450       .  S
C268        C269   1.448       .  A
C269        C270   1.413       .  A
C269        C272   1.451       .  S
C270        C274   1.455       .  S
C271        N278   1.157       .  T
C272        N279   1.157       .  T
C273        N277   1.158       .  T
C274        N280   1.157       .  T
C275        N284   1.157       .  T
C276        N282   1.157   1_455  T
C285        C286   1.412       .  A
C285        C290   1.413       .  A
C285        C303   1.451       .  S
C286        C291   1.504       .  S
C286        C287   1.412       .  A
C287        C288   1.409       .  A
C287        C292   1.450       .  S
C288        C289   1.415       .  A
C288        C304   1.451       .  S
C289        C290   1.417       .  A
C290        C293   1.451       .  S
C291        C294   1.401       .  A
C291        C298   1.398       .  A
C292        N309   1.157       .  T
C293        N311   1.157       .  T
C294        C295   1.418       .  A
C294        C299   1.456       .  S
C295        C296   1.450       .  A
C295        C301   1.449       .  S
C296        C297   1.454       .  A
C297        C298   1.420       .  A
C297        C300   1.447       .  S
C298        C302   1.456       .  S
C299        N306   1.157       .  T
C300        N307   1.157       .  T
C301        N305   1.157       .  T
C302        N308   1.157       .  T
C303        N312   1.157       .  T
C304        N310   1.157       .  T
C313        C314   1.404       .  A
C313        C318   1.411       .  A
C313        C331   1.455       .  S
C314        C319   1.502       .  S
C314        C315   1.402       .  A
C315        C316   1.420       .  A
C315        C320   1.454       .  S
C316        C317   1.449       .  A
C316        C332   1.447       .  S
C317        C318   1.443       .  A
C318        C321   1.447       .  S
C319        C322   1.413       .  A
C319        C326   1.416       .  A
C320        N337   1.157       .  T
C321        N339   1.156       .  T
C322        C323   1.409       .  A
C322        C327   1.451       .  S
C323        C324   1.411       .  A
C323        C329   1.451       .  S
C324        C325   1.411       .  A
C325        C326   1.411       .  A
C325        C328   1.451       .  S
C326        C330   1.449       .  S
C327        N334   1.157       .  T
C328        N335   1.157       .  T
C329        N333   1.157       .  T
C330        N336   1.157       .  T
C331        N340   1.157       .  T
C332        N338   1.157       .  T
C341        C342   1.397       .  A
C341        C346   1.414       .  A
C341        C359   1.456       .  S
C342        C347   1.495       .  S
C342        C343   1.397       .  A
C343        C344   1.415       .  A
C343        C348   1.455       .  S
C344        C345   1.450       .  A
C344        C360   1.450       .  S
C345        C346   1.452       .  A
C346        C349   1.449       .  S
C347        C350   1.409       .  A
C347        C354   1.411       .  A
C348        N365   1.157       .  T
C349        N367   1.158       .  T
C350        C351   1.408       .  A
C350        C355   1.450       .  S
C351        C352   1.415       .  A
C351        C357   1.448       .  S
C352        C353   1.415       .  A
C353        C354   1.409       .  A
C353        C356   1.451       .  S
C354        C358   1.451       .  S
C355        N362   1.157       .  T
C356        N363   1.157       .  T
C357        N361   1.156       .  T
C358        N364   1.157       .  T
C359        N368   1.157       .  T
C360        N366   1.157       .  T
C369        C370   1.401       .  A
C369        C374   1.421       .  A
C369        C387   1.453       .  S
C370        C375   1.500       .  S
C370        C371   1.397       .  A
C371        C372   1.408       .  A
C371        C376   1.458       .  S
C372        C373   1.447       .  A
C372        C388   1.443       .  S
C373        C374   1.450       .  A
C374        C377   1.449       .  S
C375        C378   1.410       .  A
C375        C382   1.414       .  A
C376        N393   1.157       .  T
C377        N395   1.157       .  T
C378        C379   1.411       .  A
C378        C383   1.451       .  S
C379        C380   1.415       .  A
C379        C385   1.447       .  S
C380        C381   1.413       .  A
C381        C382   1.410       .  A
C381        C384   1.451       .  S
C382        C386   1.452       .  S
C383        N390   1.157       .  T
C384        N391   1.157       .  T
C385        N389   1.155       .  T
C386        N392   1.157       .  T
C387        N396   1.157       .  T
C388        N394   1.156       .  T
C397        C398   1.401       .  A
C397        C402   1.426       .  A
C397        C415   1.454       .  S
C398        C403   1.510       .  S
C398        C399   1.397       .  A
C399        C400   1.416       .  A
C399        C404   1.458       .  S
C400        C401   1.450       .  A
C400        C416   1.441       .  S
C401        C402   1.452       .  A
C402        C405   1.448       .  S
C403        C406   1.412       .  A
C403        C410   1.416       .  A
C404        N421   1.157       .  T
C405        N423   1.157       .  T
C406        C407   1.413       .  A
C406        C411   1.449       .  S
C407        C408   1.415       .  A
C407        C413   1.449       .  S
C408        C409   1.414       .  A
C409        C410   1.415       .  A
C409        C412   1.450       .  S
C410        C414   1.451       .  S
C411        N418   1.157       .  T
C412        N419   1.157       .  T
C413        N417   1.156       .  T
C414        N420   1.157       .  T
C415        N424   1.157       .  T
C416        N422   1.155       .  T
C425        C426   1.398       .  A
C425        C430   1.417       .  A
C425        C443   1.456       .  S
C426        C431   1.500       .  S
C426        C427   1.399       .  A
C427        C428   1.417       .  A
C427        C432   1.455       .  S
C428        C429   1.450       .  A
C428        C444   1.450       .  S
C429        C430   1.451       .  A
C430        C433   1.448       .  S
C431        C434   1.411       .  A
C431        C438   1.409       .  A
C432        N449   1.157       .  T
C433        N451   1.157       .  T
C434        C435   1.413       .  A
C434        C439   1.449       .  S
C435        C436   1.416       .  A
C435        C441   1.450       .  S
C436        C437   1.417       .  A
C437        C438   1.408       .  A
C437        C440   1.451       .  S
C438        C442   1.451       .  S
C439        N446   1.157       .  T
C440        N447   1.157       .  T
C441        N445   1.157   1_455  T
C442        N448   1.157       .  T
C443        N452   1.157       .  T
C444        N450   1.157       .  T
C453        C454   1.416       .  A
C453        C458   1.410       .  A
C453        C471   1.451       .  S
C454        C459   1.505       .  S
C454        C455   1.413       .  A
C455        C456   1.413       .  A
C455        C460   1.452       .  S
C456        C457   1.417       .  A
C456        C472   1.448       .  S
C457        C458   1.413       .  A
C458        C461   1.452       .  S
C459        C462   1.399       .  A
C459        C466   1.406       .  A
C460        N477   1.157       .  T
C461        N479   1.157       .  T
C462        C463   1.414       .  A
C462        C467   1.457       .  S
C463        C464   1.450       .  A
C463        C469   1.447       .  S
C464        C465   1.446       .  A
C465        C466   1.420       .  A
C465        C468   1.449       .  S
C466        C470   1.454       .  S
C467        N474   1.157       .  T
C468        N475   1.157       .  T
C469        N473   1.156       .  T
C470        N476   1.157       .  T
C471        N480   1.158       .  T
C472        N478   1.156       .  T
C481        C482   1.412       .  A
C481        C486   1.414       .  A
C481        C499   1.451       .  S
C482        C487   1.504       .  S
C482        C483   1.412       .  A
C483        C484   1.412       .  A
C483        C488   1.450       .  S
C484        C485   1.414       .  A
C484        C500   1.451       .  S
C485        C486   1.414       .  A
C486        C489   1.446       .  S
C487        C490   1.396       .  A
C487        C494   1.397       .  A
C488        N505   1.157       .  T
C489        N507   1.156   1_554  T
C490        C491   1.418       .  A
C490        C495   1.459       .  S
C491        C492   1.455       .  A
C491        C497   1.444       .  S
C492        C493   1.452       .  A
C493        C494   1.421       .  A
C493        C496   1.446       .  S
C494        C498   1.455       .  S
C495        N502   1.157       .  T
C496        N503   1.157       .  T
C497        N501   1.156       .  T
C498        N504   1.157       .  T
C499        N508   1.157       .  T
C500        N506   1.157       .  T
C509        C510   1.409       .  A
C509        C514   1.406       .  A
C509        C527   1.452       .  S
C510        C515   1.489       .  S
C510        C511   1.408       .  A
C511        C512   1.407       .  A
C511        C516   1.450       .  S
C512        C513   1.416       .  A
C512        C528   1.451       .  S
C513        C514   1.415       .  A
C514        C517   1.451       .  S
C515        C518   1.398       .  A
C515        C522   1.395       .  A
C516        N533   1.157       .  T
C517        N535   1.157       .  T
C518        C519   1.413       .  A
C518        C523   1.455       .  S
C519        C520   1.447       .  A
C519        C525   1.451       .  S
C520        C521   1.451       .  A
C521        C522   1.411       .  A
C521        C524   1.448       .  S
C522        C526   1.457       .  S
C523        N530   1.157       .  T
C524        N531   1.157       .  T
C525        N529   1.157       .  T
C526        N532   1.157       .  T
C527        N536   1.157       .  T
C528        N534   1.157       .  T
C537        C538   1.411       .  A
C537        C542   1.418       .  A
C537        C555   1.452       .  S
C538        C543   1.515       .  S
C538        C539   1.413       .  A
C539        C540   1.413       .  A
C539        C544   1.452       .  S
C540        C541   1.427       .  A
C540        C556   1.453       .  S
C541        C542   1.432       .  A
C542        C545   1.452       .  S
C543        C546   1.398       .  A
C543        C550   1.405       .  A
C544        N561   1.157       .  T
C545        N563   1.158       .  T
C546        C547   1.418       .  A
C546        C551   1.456       .  S
C547        C548   1.453       .  A
C547        C553   1.447       .  S
C548        C549   1.449       .  A
C549        C550   1.424       .  A
C549        C552   1.447       .  S
C550        C554   1.454       .  S
C551        N558   1.157       .  T
C552        N559   1.158       .  T
C553        N557   1.157       .  T
C554        N560   1.157       .  T
C555        N564   1.157       .  T
C556        N562   1.158       .  T
C565        C566   1.412       .  A
C565        C570   1.407       .  A
C565        C583   1.452       .  S
C566        C571   1.498       .  S
C566        C567   1.415       .  A
C567        C568   1.409       .  A
C567        C572   1.450       .  S
C568        C569   1.408       .  A
C568        C584   1.450       .  S
C569        C570   1.414       .  A
C570        C573   1.452       .  S
C571        C574   1.402       .  A
C571        C578   1.398       .  A
C572        N589   1.157       .  T
C573        N591   1.157       .  T
C574        C575   1.417       .  A
C574        C579   1.457       .  S
C575        C576   1.450       .  A
C575        C581   1.449       .  S
C576        C577   1.451       .  A
C577        C578   1.412       .  A
C577        C580   1.451       .  S
C578        C582   1.456       .  S
C579        N586   1.157       .  T
C580        N587   1.157       .  T
C581        N585   1.158       .  T
C582        N588   1.157       .  T
C583        N592   1.157       .  T
C584        N590   1.157       .  T
C593        C594   1.420       .  A
C593        C598   1.416       .  A
C593        C611   1.450       .  S
C594        C599   1.513       .  S
C594        C595   1.413       .  A
C595        C596   1.411       .  A
C595        C600   1.452       .  S
C596        C597   1.414       .  A
C596        C612   1.447       .  S
C597        C598   1.411       .  A
C598        C601   1.451       .  S
C599        C602   1.402       .  A
C599        C606   1.407       .  A
C600        N617   1.157       .  T
C601        N619   1.157       .  T
C602        C603   1.421       .  A
C602        C607   1.455       .  S
C603        C604   1.450       .  A
C603        C609   1.448       .  S
C604        C605   1.446       .  A
C605        C606   1.419       .  A
C605        C608   1.449       .  S
C606        C610   1.455       .  S
C607        N614   1.157       .  T
C608        N615   1.157       .  T
C609        N613   1.157       .  T
C610        N616   1.157       .  T
C611        N620   1.157       .  T
C612        N618   1.156   1_554  T
C621        C622   1.402       .  A
C621        C626   1.416       .  A
C621        C639   1.454       .  S
C622        C627   1.494       .  S
C622        C623   1.397       .  A
C623        C624   1.407       .  A
C623        C628   1.456       .  S
C624        C625   1.449       .  A
C624        C640   1.449       .  S
C625        C626   1.448       .  A
C626        C629   1.450       .  S
C627        C630   1.413       .  A
C627        C634   1.411       .  A
C628        N645   1.157       .  T
C629        N647   1.157       .  T
C630        C631   1.405       .  A
C630        C635   1.452       .  S
C631        C632   1.412       .  A
C631        C637   1.453       .  S
C632        C633   1.410       .  A
C633        C634   1.408       .  A
C633        C636   1.449       .  S
C634        C638   1.450       .  S
C635        N642   1.157       .  T
C636        N643   1.156       .  T
C637        N641   1.157       .  T
C638        N644   1.157       .  T
C639        N648   1.157       .  T
C640        N646   1.157       .  T
C649        C650   1.398       .  A
C649        C654   1.412       .  A
C649        C667   1.455       .  S
C650        C655   1.493       .  S
C650        C651   1.397       .  A
C651        C652   1.415       .  A
C651        C656   1.458       .  S
C652        C653   1.453       .  A
C652        C668   1.450       .  S
C653        C654   1.449       .  A
C654        C657   1.452       .  S
C655        C658   1.405       .  A
C655        C662   1.408       .  A
C656        N673   1.157       .  T
C657        N675   1.157       .  T
C658        C659   1.407       .  A
C658        C663   1.453       .  S
C659        C660   1.424       .  A
C659        C665   1.450       .  S
C660        C661   1.427       .  A
C661        C662   1.410       .  A
C661        C664   1.453       .  S
C662        C666   1.452       .  S
C663        N670   1.157       .  T
C664        N671   1.158       .  T
C665        N669   1.157       .  T
C666        N672   1.157       .  T
C667        N676   1.157       .  T
C668        N674   1.158       .  T
C677        C678   1.397       .  A
C677        C682   1.417       .  A
C677        C695   1.457       .  S
C678        C683   1.499       .  S
C678        C679   1.399       .  A
C679        C680   1.414       .  A
C679        C684   1.456       .  S
C680        C681   1.451       .  A
C680        C696   1.451       .  S
C681        C682   1.449       .  A
C682        C685   1.442       .  S
C683        C686   1.409       .  A
C683        C690   1.405       .  A
C684        N701   1.157       .  T
C685        N703   1.156       .  T
C686        C687   1.414       .  A
C686        C691   1.451       .  S
C687        C688   1.426       .  A
C687        C693   1.452       .  S
C688        C689   1.427       .  A
C689        C690   1.407       .  A
C689        C692   1.452       .  S
C690        C694   1.454       .  S
C691        N698   1.157       .  T
C692        N699   1.157       .  T
C693        N697   1.158       .  T
C694        N700   1.157       .  T
C695        N704   1.157       .  T
C696        N702   1.157       .  T
C705        C706   1.417       .  A
C705        C710   1.409       .  A
C705        C723   1.451       .  S
C706        C711   1.501       .  S
C706        C707   1.413       .  A
C707        C708   1.410       .  A
C707        C712   1.451       .  S
C708        C709   1.410       .  A
C708        C724   1.450       .  S
C709        C710   1.411       .  A
C710        C713   1.453       .  S
C711        C714   1.403       .  A
C711        C718   1.398       .  A
C712        N729   1.157       .  T
C713        N731   1.157       .  T
C714        C715   1.420       .  A
C714        C719   1.454       .  S
C715        C716   1.446       .  A
C715        C721   1.449       .  S
C716        C717   1.453       .  A
C717        C718   1.413       .  A
C717        C720   1.449       .  S
C718        C722   1.459       .  S
C719        N726   1.157       .  T
C720        N727   1.157       .  T
C721        N725   1.157       .  T
C722        N728   1.157       .  T
C723        N732   1.157       .  T
C724        N730   1.157       .  T
C733        C734   1.398       .  A
C733        C738   1.412       .  A
C733        C751   1.457       .  S
C734        C739   1.499       .  S
C734        C735   1.400       .  A
C735        C736   1.415       .  A
C735        C740   1.454       .  S
C736        C737   1.449       .  A
C736        C752   1.451       .  S
C737        C738   1.449       .  A
C738        C741   1.446       .  S
C739        C742   1.413       .  A
C739        C746   1.410       .  A
C740        N757   1.157       .  T
C741        N759   1.157       .  T
C742        C743   1.410       .  A
C742        C747   1.451       .  S
C743        C744   1.413       .  A
C743        C749   1.450       .  S
C744        C745   1.415       .  A
C745        C746   1.411       .  A
C745        C748   1.447       .  S
C746        C750   1.451       .  S
C747        N754   1.157       .  T
C748        N755   1.155   1_455  T
C749        N753   1.157       .  T
C750        N756   1.157       .  T
C751        N760   1.157       .  T
C752        N758   1.157       .  T
C761        C762   1.401       .  A
C761        C766   1.418       .  A
C761        C779   1.455       .  S
C762        C767   1.505       .  S
C762        C763   1.399       .  A
C763        C764   1.420       .  A
C763        C768   1.455       .  S
C764        C765   1.453       .  A
C764        C780   1.449       .  S
C765        C766   1.447       .  A
C766        C769   1.448       .  S
C767        C770   1.409       .  A
C767        C774   1.410       .  A
C768        N785   1.157       .  T
C769        N787   1.157       .  T
C770        C771   1.414       .  A
C770        C775   1.452       .  S
C771        C772   1.424       .  A
C771        C777   1.449       .  S
C772        C773   1.419       .  A
C773        C774   1.411       .  A
C773        C776   1.450       .  S
C774        C778   1.450       .  S
C775        N782   1.157       .  T
C776        N783   1.157       .  T
C777        N781   1.157   1_554  T
C778        N784   1.157       .  T
C779        N788   1.157       .  T
C780        N786   1.157       .  T
C789        C790   1.407       .  A
C789        C794   1.406       .  A
C789        C807   1.453       .  S
C790        C795   1.493       .  S
C790        C791   1.409       .  A
C791        C792   1.412       .  A
C791        C796   1.450       .  S
C792        C793   1.419       .  A
C792        C808   1.451       .  S
C793        C794   1.417       .  A
C794        C797   1.449       .  S
C795        C798   1.399       .  A
C795        C802   1.396       .  A
C796        N813   1.157       .  T
C797        N815   1.156       .  T
C798        C799   1.416       .  A
C798        C803   1.457       .  S
C799        C800   1.449       .  A
C799        C805   1.447       .  S
C800        C801   1.451       .  A
C801        C802   1.412       .  A
C801        C804   1.451       .  S
C802        C806   1.455       .  S
C803        N810   1.157       .  T
C804        N811   1.157       .  T
C805        N809   1.157       .  T
C806        N812   1.157       .  T
C807        N816   1.157       .  T
C808        N814   1.157   1_556  T
C817        C818   1.396       .  A
C817        C822   1.412       .  A
C817        C835   1.459       .  S
C818        C823   1.500       .  S
C818        C819   1.401       .  A
C819        C820   1.421       .  A
C819        C824   1.454       .  S
C820        C821   1.448       .  A
C820        C836   1.447       .  S
C821        C822   1.453       .  A
C822        C825   1.447       .  S
C823        C826   1.413       .  A
C823        C830   1.413       .  A
C824        N841   1.157       .  T
C825        N843   1.156       .  T
C826        C827   1.409       .  A
C826        C831   1.452       .  S
C827        C828   1.411       .  A
C827        C833   1.448       .  S
C828        C829   1.411       .  A
C829        C830   1.410       .  A
C829        C832   1.451       .  S
C830        C834   1.450       .  S
C831        N838   1.157       .  T
C832        N839   1.157       .  T
C833        N837   1.156       .  T
C834        N840   1.157       .  T
C835        N844   1.157       .  T
C836        N842   1.157       .  T
C845        C846   1.408       .  A
C845        C850   1.411       .  A
C845        C863   1.452       .  S
C846        C851   1.499       .  S
C846        C847   1.407       .  A
C847        C848   1.413       .  A
C847        C852   1.451       .  S
C848        C849   1.426       .  A
C848        C864   1.451       .  S
C849        C850   1.420       .  A
C850        C853   1.450       .  S
C851        C854   1.397       .  A
C851        C858   1.396       .  A
C852        N869   1.157       .  T
C853        N871   1.157       .  T
C854        C855   1.417       .  A
C854        C859   1.455       .  S
C855        C856   1.450       .  A
C855        C861   1.450       .  S
C856        C857   1.455       .  A
C857        C858   1.416       .  A
C857        C860   1.449       .  S
C858        C862   1.457       .  S
C859        N866   1.157       .  T
C860        N867   1.158       .  T
C861        N865   1.157       .  T
C862        N868   1.157       .  T
C863        N872   1.157       .  T
C864        N870   1.158       .  T
C873        C874   1.400       .  A
C873        C878   1.416       .  A
C873        C891   1.458       .  S
C874        C879   1.501       .  S
C874        C875   1.400       .  A
C875        C876   1.418       .  A
C875        C880   1.454       .  S
C876        C877   1.447       .  A
C876        C892   1.449       .  S
C877        C878   1.450       .  A
C878        C881   1.446       .  S
C879        C882   1.412       .  A
C879        C886   1.414       .  A
C880        N897   1.157       .  T
C881        N899   1.156       .  T
C882        C883   1.410       .  A
C882        C887   1.451       .  S
C883        C884   1.413       .  A
C883        C889   1.447       .  S
C884        C885   1.412       .  A
C885        C886   1.409       .  A
C885        C888   1.452       .  S
C886        C890   1.449       .  S
C887        N894   1.157       .  T
C888        N895   1.157       .  T
C889        N893   1.156   1_655  T
C890        N896   1.157       .  T
C891        N900   1.157       .  T
C892        N898   1.157       .  T
C901        C902   1.411       .  A
C901        C906   1.409       .  A
C901        C919   1.449       .  S
C902        C907   1.499       .  S
C902        C903   1.411       .  A
C903        C904   1.411       .  A
C903        C908   1.451       .  S
C904        C905   1.416       .  A
C904        C920   1.451       .  S
C905        C906   1.413       .  A
C906        C909   1.450       .  S
C907        C910   1.399       .  A
C907        C914   1.397       .  A
C908        N925   1.157       .  T
C909        N927   1.157       .  T
C910        C911   1.416       .  A
C910        C915   1.455       .  S
C911        C912   1.449       .  A
C911        C917   1.450       .  S
C912        C913   1.455       .  A
C913        C914   1.417       .  A
C913        C916   1.449       .  S
C914        C918   1.456       .  S
C915        N922   1.157       .  T
C916        N923   1.157       .  T
C917        N921   1.157       .  T
C918        N924   1.157       .  T
C919        N928   1.157       .  T
C920        N926   1.157       .  T
C929        C930   1.403       .  A
C929        C934   1.417       .  A
C929        C947   1.454       .  S
C930        C935   1.503       .  S
C930        C931   1.399       .  A
C931        C932   1.416       .  A
C931        C936   1.457       .  S
C932        C933   1.449       .  A
C932        C948   1.444       .  S
C933        C934   1.446       .  A
C934        C937   1.451       .  S
C935        C938   1.411       .  A
C935        C942   1.413       .  A
C936        N953   1.157       .  T
C937        N955   1.157       .  T
C938        C939   1.412       .  A
C938        C943   1.452       .  S
C939        C940   1.417       .  A
C939        C945   1.448       .  S
C940        C941   1.416       .  A
C941        C942   1.409       .  A
C941        C944   1.451       .  S
C942        C946   1.451       .  S
C943        N950   1.157       .  T
C944        N951   1.157       .  T
C945        N949   1.156       .  T
C946        N952   1.157       .  T
C947        N956   1.157       .  T
C948        N954   1.156       .  T
C957        C958   1.405       .  A
C957        C962   1.405       .  A
C957        C975   1.454       .  S
C958        C963   1.490       .  S
C958        C959   1.406       .  A
C959        C960   1.410       .  A
C959        C964   1.451       .  S
C960        C961   1.425       .  A
C960        C976   1.452       .  S
C961        C962   1.423       .  A
C962        C965   1.450       .  S
C963        C966   1.397       .  A
C963        C970   1.396       .  A
C964        N981   1.157       .  T
C965        N983   1.156       .  T
C966        C967   1.413       .  A
C966        C971   1.455       .  S
C967        C968   1.448       .  A
C967        C973   1.451       .  S
C968        C969   1.452       .  A
C969        C970   1.411       .  A
C969        C972   1.451       .  S
C970        C974   1.458       .  S
C971        N978   1.157       .  T
C972        N979   1.158       .  T
C973        N977   1.157       .  T
C974        N980   1.157       .  T
C975        N984   1.157       .  T
C976        N982   1.158       .  T
C985        C986   1.412       .  A
C985        C990   1.412       .  A
C985       C1003   1.451       .  S
C986        C991   1.506       .  S
C986        C987   1.412       .  A
C987        C988   1.413       .  A
C987        C992   1.450       .  S
C988        C989   1.417       .  A
C988       C1004   1.451       .  S
C989        C990   1.417       .  A
C990        C993   1.450       .  S
C991        C994   1.401       .  A
C991        C998   1.401       .  A
C992       N1009   1.157       .  T
C993       N1011   1.157       .  T
C994        C995   1.417       .  A
C994        C999   1.457       .  S
C995        C996   1.449       .  A
C995       C1001   1.447       .  S
C996        C997   1.449       .  A
C997        C998   1.421       .  A
C997       C1000   1.448       .  S
C998       C1002   1.454       .  S
C999       N1006   1.157       .  T
C1000      N1007   1.157       .  T
C1001      N1005   1.157       .  T
C1002      N1008   1.157       .  T
C1003      N1012   1.157       .  T
C1004      N1010   1.157       .  T
C1013      C1014   1.398       .  A
C1013      C1018   1.416       .  A
C1013      C1031   1.456       .  S
C1014      C1019   1.494       .  S
C1014      C1015   1.396       .  A
C1015      C1016   1.412       .  A
C1015      C1020   1.455       .  S
C1016      C1017   1.450       .  A
C1016      C1032   1.450       .  S
C1017      C1018   1.449       .  A
C1018      C1021   1.445       .  S
C1019      C1022   1.409       .  A
C1019      C1026   1.408       .  A
C1020      N1037   1.157       .  T
C1021      N1039   1.157       .  T
C1022      C1023   1.410       .  A
C1022      C1027   1.452       .  S
C1023      C1024   1.418       .  A
C1023      C1029   1.450       .  S
C1024      C1025   1.415       .  A
C1025      C1026   1.407       .  A
C1025      C1028   1.449       .  S
C1026      C1030   1.450       .  S
C1027      N1034   1.157       .  T
C1028      N1035   1.156       .  T
C1029      N1033   1.157       .  T
C1030      N1036   1.157       .  T
C1031      N1040   1.157       .  T
C1032      N1038   1.157       .  T
C1041      C1042   1.399       .  A
C1041      C1046   1.420       .  A
C1041      C1059   1.454       .  S
C1042      C1047   1.504       .  S
C1042      C1043   1.397       .  A
C1043      C1044   1.417       .  A
C1043      C1048   1.459       .  S
C1044      C1045   1.452       .  A
C1044      C1060   1.443       .  S
C1045      C1046   1.449       .  A
C1046      C1049   1.448       .  S
C1047      C1050   1.414       .  A
C1047      C1054   1.413       .  A
C1048      N1065   1.157       .  T
C1049      N1067   1.157       .  T
C1050      C1051   1.411       .  A
C1050      C1055   1.450       .  S
C1051      C1052   1.412       .  A
C1051      C1057   1.451       .  S
C1052      C1053   1.411       .  A
C1053      C1054   1.412       .  A
C1053      C1056   1.448       .  S
C1054      C1058   1.451       .  S
C1055      N1062   1.157       .  T
C1056      N1063   1.156       .  T
C1057      N1061   1.157       .  T
C1058      N1064   1.157       .  T
C1059      N1068   1.157       .  T
C1060      N1066   1.155       .  T
C1069      C1070   1.396       .  A
C1069      C1074   1.411       .  A
C1069      C1087   1.457       .  S
C1070      C1075   1.491       .  S
C1070      C1071   1.396       .  A
C1071      C1072   1.414       .  A
C1071      C1076   1.455       .  S
C1072      C1073   1.449       .  A
C1072      C1088   1.450       .  S
C1073      C1074   1.452       .  A
C1074      C1077   1.451       .  S
C1075      C1078   1.407       .  A
C1075      C1082   1.407       .  A
C1076      N1093   1.157       .  T
C1077      N1095   1.158       .  T
C1078      C1079   1.406       .  A
C1078      C1083   1.453       .  S
C1079      C1080   1.418       .  A
C1079      C1085   1.451       .  S
C1080      C1081   1.420       .  A
C1081      C1082   1.410       .  A
C1081      C1084   1.450       .  S
C1082      C1086   1.451       .  S
C1083      N1090   1.157       .  T
C1084      N1091   1.157       .  T
C1085      N1089   1.157       .  T
C1086      N1092   1.157       .  T
C1087      N1096   1.157       .  T
C1088      N1094   1.157       .  T
C1097      C1098   1.412       .  A
C1097      C1102   1.414       .  A
C1097      C1115   1.451       .  S
C1098      C1103   1.503       .  S
C1098      C1099   1.410       .  A
C1099      C1100   1.411       .  A
C1099      C1104   1.450       .  S
C1100      C1101   1.414       .  A
C1100      C1116   1.448       .  S
C1101      C1102   1.418       .  A
C1102      C1105   1.451       .  S
C1103      C1106   1.398       .  A
C1103      C1110   1.399       .  A
C1104      N1121   1.157       .  T
C1105      N1123   1.157       .  T
C1106      C1107   1.419       .  A
C1106      C1111   1.456       .  S
C1107      C1108   1.452       .  A
C1107      C1113   1.445       .  S
C1108      C1109   1.450       .  A
C1109      C1110   1.416       .  A
C1109      C1112   1.451       .  S
C1110      C1114   1.454       .  S
C1111      N1118   1.157       .  T
C1112      N1119   1.157       .  T
C1113      N1117   1.157       .  T
C1114      N1120   1.157       .  T
C1115      N1124   1.157       .  T
C1116      N1122   1.156       .  T
C1125      C1126   1.416       .  A
C1125      C1130   1.410       .  A
C1125      C1143   1.451       .  S
C1126      C1131   1.510       .  S
C1126      C1127   1.418       .  A
C1127      C1128   1.412       .  A
C1127      C1132   1.450       .  S
C1128      C1129   1.411       .  A
C1128      C1144   1.452       .  S
C1129      C1130   1.409       .  A
C1130      C1133   1.449       .  S
C1131      C1134   1.403       .  A
C1131      C1138   1.403       .  A
C1132      N1149   1.157       .  T
C1133      N1151   1.157       .  T
C1134      C1135   1.416       .  A
C1134      C1139   1.457       .  S
C1135      C1136   1.448       .  A
C1135      C1141   1.449       .  S
C1136      C1137   1.450       .  A
C1137      C1138   1.423       .  A
C1137      C1140   1.447       .  S
C1138      C1142   1.456       .  S
C1139      N1146   1.157       .  T
C1140      N1147   1.157       .  T
C1141      N1145   1.157       .  T
C1142      N1148   1.157       .  T
C1143      N1152   1.157       .  T
C1144      N1150   1.157       .  T
