geometry optimzed in LAMMPS
_audit_creation_date              2020-11-30 
_audit_creation_method            'lammps2cif' 
_symmetry_space_group_name_H-M    'P1' 
_symmetry_Int_Tables_number       1 
_symmetry_cell_setting            triclinic 
loop_ 
_symmetry_equiv_pos_as_xyz 
  x,y,z 
_cell_length_a                    45.784761105963895 
_cell_length_b                    40.07916246693832 
_cell_length_c                    27.853093079174045 
_cell_angle_alpha                 90.4641866109272 
_cell_angle_beta                  89.63161385800645 
_cell_angle_gamma                 89.0279322591091 
loop_ 
_atom_site_label 
_atom_site_type_symbol 
_atom_site_fract_x 
_atom_site_fract_y 
_atom_site_fract_z 
_atom_site_charge 
C1          C  0.59928144  0.99476480  0.82367868     0.02730
C2          C  0.57478868  0.47619116  0.80962482    -0.13420
C3          C  0.54992908  0.47617836  0.83871495     0.00230
C4          C  0.54900560  0.49641792  0.87977132    -0.11950
C5          C  0.57430797  0.01047781  0.89921553     0.02720
C6          C  0.59950766  0.01011169  0.86974396    -0.11370
H7          H  0.57517467  0.46141168  0.77691302     0.08310
H8          H  0.52881816  0.49608814  0.89981696     0.05840
H9          H  0.61946045  0.02109270  0.88253254     0.05690
In10       In  0.73690914  0.00243752  0.62266142     1.36870
C11         C  0.75584920  0.06420137  0.63164083     0.77180
O12         O  0.75749745  0.00600757  0.55058994    -0.61270
O13         O  0.71122304  0.00217658  0.55421551    -0.52180
C14         C  0.76474791  0.44450657  0.63350753     0.69850
O15         O  0.77301589  0.47069333  0.65446116    -0.47030
C16         C  0.69529375  0.99858665  0.68869604     0.74550
O17         O  0.77171272  0.03887477  0.64051641    -0.58890
O18         O  0.69102940  0.99116238  0.64523881    -0.48990
O19         O  0.72998809  0.05772052  0.61977507    -0.55330
C20         C  0.73374834  0.00477444  0.52805095     0.84730
O21         O  0.74222310  0.44791438  0.60834447    -0.57220
O22         O  0.72068490  0.50816385  0.69821139    -0.60510
In23       In  0.33906181  0.44215009  0.62486118     1.36870
C24         C  0.31205001  0.38442941  0.63793265     0.77180
O25         O  0.32210364  0.44621788  0.55036430    -0.61270
O26         O  0.36729490  0.43472596  0.55856174    -0.52180
C27         C  0.31726562  0.00337257  0.63459605     0.69850
O28         O  0.30641556  0.47891530  0.65636628    -0.47030
C29         C  0.38065276  0.44404565  0.69077738     0.74550
O30         O  0.29828343  0.41158776  0.63229443    -0.58890
O31         O  0.38579438  0.43662447  0.64737285    -0.48990
O32         O  0.33935145  0.38704627  0.63801320    -0.55330
C33         C  0.34638581  0.44042014  0.53030119     0.84730
O34         O  0.33963858  0.99660294  0.60952272    -0.57220
O35         O  0.35434518  0.45134699  0.70026770    -0.60510
C36         C  0.47479246  0.44501578  0.82698902     0.02730
C37         C  0.50168891  0.45629332  0.80919098    -0.13420
C38         C  0.52711786  0.45038537  0.83561874     0.00230
C39         C  0.52518788  0.42964401  0.87581392    -0.11950
C40         C  0.49873740  0.42960894  0.90202267     0.02720
C41         C  0.47295343  0.43400008  0.87497602    -0.11370
H42         H  0.50254130  0.47066266  0.77646196     0.08310
H43         H  0.54543767  0.42242869  0.89292387     0.05840
H44         H  0.45163352  0.43099293  0.89120214     0.05690
In45       In  0.23774042  0.19369398  0.62868303     1.36870
C46         C  0.26041210  0.25403020  0.63661781     0.77180
O47         O  0.25677015  0.19873362  0.55581954    -0.61270
O48         O  0.21170169  0.18715814  0.56113691    -0.52180
C49         C  0.26329250  0.13414061  0.63475630     0.69850
O50         O  0.27377744  0.15963760  0.65486361    -0.47030
C51         C  0.19602572  0.19488854  0.69542640     0.74550
O52         O  0.27469155  0.22791709  0.64745672    -0.58890
O53         O  0.19134137  0.20251773  0.65231069    -0.48990
O54         O  0.23436550  0.24905255  0.62477347    -0.55330
C55         C  0.23334516  0.19270291  0.53409695     0.84730
O56         O  0.23923478  0.13898613  0.61395389    -0.57220
O57         O  0.22192545  0.18590344  0.70427347    -0.60510
C58         C  0.09875256  0.19200702  0.82827082     0.02730
C59         C  0.07120700  0.20253846  0.81090506    -0.13420
C60         C  0.04615147  0.19757278  0.83883155     0.00230
C61         C  0.04901230  0.17785300  0.87996504    -0.11950
C62         C  0.07559518  0.17872768  0.90515604     0.02720
C63         C  0.10105964  0.18312181  0.87718317    -0.11370
H64         H  0.06940374  0.21580118  0.77731870     0.08310
H65         H  0.02912159  0.17116427  0.89841816     0.05840
H66         H  0.12247790  0.18173881  0.89331473     0.05690
C67         C  0.97398494  0.24512812  0.82689934     0.02730
C68         C  0.97371051  0.26150046  0.87217142    -0.13420
C69         C  0.99865524  0.26051868  0.90159169     0.00230
C70         C  0.02400270  0.24498632  0.88229496    -0.11950
C71         C  0.02303395  0.22401192  0.84202998     0.02720
C72         C  0.99816788  0.22470885  0.81340661    -0.11370
H73         H  0.95395951  0.27420237  0.88449931     0.08310
H74         H  0.04415184  0.24431397  0.90205021     0.05840
H75         H  0.99744485  0.20922241  0.78140863     0.05690
In76       In  0.83595246  0.25087060  0.62903395     1.36870
C77         C  0.80694913  0.19444015  0.63952328     0.77180
O78         O  0.81884053  0.25641049  0.55506015    -0.61270
O79         O  0.86307307  0.24054984  0.56249289    -0.52180
C80         C  0.81653557  0.31313127  0.64017557     0.69850
O81         O  0.80455944  0.28903685  0.66114201    -0.47030
C82         C  0.87822731  0.24996704  0.69356195     0.74550
O83         O  0.79408314  0.22245157  0.63710257    -0.58890
O84         O  0.88317537  0.25276026  0.64920087    -0.48990
O85         O  0.83439407  0.19551821  0.63725634    -0.55330
C86         C  0.84253011  0.24838233  0.53447267     0.84730
O87         O  0.83875400  0.30528083  0.61548373    -0.57220
O88         O  0.85164872  0.24797371  0.70514377    -0.60510
C89         C  0.59920405  0.00197037  0.02739387     0.02730
C90         C  0.60090000  0.01309659  0.97949456    -0.13420
C91         C  0.57507709  0.01759679  0.95269961     0.00230
C92         C  0.54880988  0.51757789  0.97912277    -0.11950
C93         C  0.54689419  0.49674383  0.01922759     0.02720
C94         C  0.57247595  0.49053153  0.04529666    -0.11370
H95         H  0.62217874  0.01595362  0.96305492     0.08310
H96         H  0.52855029  0.52493897  0.96214437     0.05840
H97         H  0.57173010  0.47593458  0.07781663     0.05690
In98       In  0.73677834  0.99952816  0.22602409     1.36870
C99         C  0.75981794  0.43860886  0.21690186     0.77180
O100        O  0.75631314  0.00449963  0.29842695    -0.61270
O101        O  0.71096543  0.49568742  0.29478252    -0.52180
C102        C  0.76162757  0.05808481  0.21488465     0.69850
O103        O  0.77556677  0.03094828  0.20865104    -0.47030
C104        C  0.69553757  0.50061441  0.15966735     0.74550
O105        O  0.77284924  0.46425681  0.20255990    -0.58890
O106        O  0.69081360  0.50916456  0.20276476    -0.48990
O107        O  0.73483086  0.44445752  0.23477270    -0.55330
C108        C  0.73281884  0.00020258  0.32104304     0.84730
O109        O  0.73483013  0.05525003  0.22402454    -0.57220
O110        O  0.72124262  0.99119132  0.15049397    -0.60510
In111      In  0.33643941  0.44284088  0.23056054     1.36870
C112        C  0.31462062  0.00400552  0.22055870     0.77180
O113        O  0.32060274  0.45056133  0.30540206    -0.61270
O114        O  0.36265197  0.42807220  0.29558809    -0.52180
C115        C  0.30890990  0.38568483  0.21852116     0.69850
O116        O  0.29537649  0.41324373  0.22301298    -0.47030
C117        C  0.37866701  0.44605805  0.16543194     0.74550
O118        O  0.30355278  0.47913534  0.19971214    -0.58890
O119        O  0.38317572  0.45054952  0.20962330    -0.48990
O120        O  0.33692950  0.99738914  0.24516838    -0.55330
C121        C  0.34320355  0.43854958  0.32461530     0.84730
O122        O  0.33632340  0.38761523  0.21919897    -0.57220
O123        O  0.35263499  0.43987105  0.15448767    -0.60510
C124        C  0.47371960  0.45419516  0.02955409     0.02730
C125        C  0.47404159  0.43743711  0.98458039    -0.13420
C126        C  0.49939971  0.43675830  0.95554029     0.00230
C127        C  0.52477541  0.45069429  0.97533521    -0.11950
C128        C  0.52376585  0.47122988  0.01615239     0.02720
C129        C  0.49844138  0.47215847  0.04427859    -0.11370
H130        H  0.45425032  0.42593040  0.97202705     0.08310
H131        H  0.54512555  0.45063502  0.95570672     0.05840
H132        H  0.49779700  0.48719354  0.07673615     0.05690
In133      In  0.23638026  0.19448306  0.23216514     1.36870
C134        C  0.26228083  0.13542335  0.22290915     0.77180
O135        O  0.25664081  0.20077282  0.30347455    -0.61270
O136        O  0.21175549  0.18812797  0.30149728    -0.52180
C137        C  0.25701280  0.25558556  0.22234655     0.69850
O138        O  0.27171296  0.22985029  0.21016659    -0.47030
C139        C  0.19442429  0.19453966  0.16734270     0.74550
O140        O  0.27277512  0.16126503  0.20422653    -0.58890
O141        O  0.18956577  0.20104017  0.21104493    -0.48990
O142        O  0.23829084  0.13967937  0.24471664    -0.55330
C143        C  0.23369571  0.19495496  0.32692863     0.84730
O144        O  0.23168124  0.24968230  0.23740242    -0.57220
O145        O  0.22056427  0.18723159  0.15690391    -0.60510
C146        C  0.10056452  0.20437885  0.03133523     0.02730
C147        C  0.10036575  0.18714059  0.98673339    -0.13420
C148        C  0.07499358  0.18684742  0.95832074     0.00230
C149        C  0.04960069  0.20199135  0.97808221    -0.11950
C150        C  0.05058981  0.22320580  0.01805273     0.02720
C151        C  0.07568734  0.22326637  0.04606964    -0.11370
H152        H  0.12019640  0.17483274  0.97398603     0.08310
H153        H  0.02922050  0.20209980  0.95897565     0.05840
H154        H  0.07597013  0.23831318  0.07848482     0.05690
C155        C  0.97440151  0.25300485  0.03128451     0.02730
C156        C  0.97214260  0.26214278  0.98239910    -0.13420
C157        C  0.99762025  0.26781297  0.95495310     0.00230
C158        C  0.02409463  0.26910343  0.98041088    -0.11950
C159        C  0.02717232  0.24927647  0.02139508     0.02720
C160        C  0.00216017  0.24354201  0.04897526    -0.11370
H161        H  0.95085459  0.26267787  0.96572076     0.08310
H162        H  0.04391008  0.27625134  0.96208281     0.05840
H163        H  0.00425114  0.23031753  0.08254272     0.05690
In164      In  0.83770800  0.24726751  0.23454744     1.36870
C165        C  0.81191118  0.30640196  0.22484695     0.77180
O166        O  0.82059014  0.25486474  0.30870802    -0.61270
O167        O  0.86644804  0.24782595  0.30015690    -0.52180
C168        C  0.81319486  0.18778032  0.22662475     0.69850
O169        O  0.80285008  0.21327489  0.20615859    -0.47030
C170        C  0.87831219  0.24541762  0.16595340     0.74550
O171        O  0.79797032  0.27950416  0.22482822    -0.58890
O172        O  0.88407213  0.24006367  0.20946407    -0.48990
O173        O  0.83927976  0.30290116  0.22835746    -0.55330
C174        C  0.84515966  0.25272483  0.32853760     0.84730
O175        O  0.83644419  0.19270448  0.24914215    -0.57220
O176        O  0.85181551  0.25183375  0.15751205    -0.60510
C177        C  0.94797976  0.25011383  0.06237759    -0.06520
C178        C  0.94445087  0.22121443  0.09006349    -0.17650
C179        C  0.92134120  0.21850794  0.12289268     0.10670
C180        C  0.90093455  0.24505257  0.12812026    -0.06450
C181        C  0.90340896  0.27314318  0.09887477    -0.17680
C182        C  0.92696560  0.27634813  0.06702358     0.10700
S183        S  0.91886849  0.18043630  0.15667698    -0.32650
S184        S  0.93007643  0.31569489  0.03661223    -0.32660
H185        H  0.96056597  0.31760884  0.04146390     0.28710
H186        H  0.88820622  0.18077376  0.16041506     0.28710
H187        H  0.95988872  0.20056258  0.08630188     0.19300
H188        H  0.88786726  0.29369285  0.10305544     0.19310
C189        C  0.12681009  0.20283071  0.06237023    -0.06520
C190        C  0.13908195  0.17134350  0.07296278    -0.17650
C191        C  0.16142332  0.16784925  0.10672042     0.10670
C192        C  0.17143664  0.19635734  0.13109434    -0.06450
C193        C  0.16005138  0.22787148  0.11949165    -0.17680
C194        C  0.13858462  0.23155267  0.08440268     0.10700
S195        S  0.17569176  0.12638577  0.11783024    -0.32650
S196        S  0.12855437  0.27357956  0.06761799    -0.32660
H197        H  0.12175517  0.26561413  0.01973705     0.28710
H198        H  0.18335890  0.13174280  0.16602766     0.28710
H199        H  0.13053963  0.14915043  0.05602853     0.19300
H200        H  0.16860956  0.24989560  0.13692062     0.19310
C201        C  0.30215648  0.03811849  0.21876259    -0.06520
C202        C  0.30187883  0.05697427  0.26146123    -0.17650
C203        C  0.28958634  0.08907102  0.26326586     0.10670
C204        C  0.27730942  0.10286066  0.22144811    -0.06450
C205        C  0.27791119  0.08440933  0.17848884    -0.17680
C206        C  0.29029295  0.05218808  0.17665745     0.10700
S207        S  0.28987898  0.11101717  0.32011866    -0.32650
S208        S  0.29093142  0.03075163  0.11955107    -0.32660
H209        H  0.31852207  0.01551963  0.12605454     0.28710
H210        H  0.29279277  0.14307409  0.30074662     0.28710
H211        H  0.31092227  0.04640938  0.29396595     0.19300
H212        H  0.26845161  0.09503773  0.14637160     0.19310
C213        C  0.26864786  0.28977812  0.21969321    -0.06520
C214        C  0.29156896  0.29593177  0.18741399    -0.17650
C215        C  0.30407213  0.32747287  0.18441367     0.10670
C216        C  0.29400266  0.35348069  0.21509086    -0.06450
C217        C  0.27083375  0.34761108  0.24681580    -0.17680
C218        C  0.25811453  0.31620294  0.24956206     0.10700
S219        S  0.33230884  0.33310640  0.13996649    -0.32650
S220        S  0.23044292  0.31082444  0.29495400    -0.32660
H221        H  0.20838385  0.30546268  0.26093236     0.28710
H222        H  0.32521322  0.36670240  0.13053232     0.28710
H223        H  0.29967297  0.27610245  0.16398521     0.19300
H224        H  0.26333112  0.36729505  0.27104325     0.19310
C225        C  0.40209742  0.44772391  0.12939753    -0.06520
C226        C  0.41206889  0.47912410  0.11578580    -0.17650
C227        C  0.43412245  0.48219696  0.08111981     0.10670
C228        C  0.44743752  0.45312017  0.06096806    -0.06450
C229        C  0.43669171  0.42175265  0.07369095    -0.17680
C230        C  0.41422304  0.41875679  0.10759487     0.10700
S231        S  0.44302831  0.02380805  0.06250305    -0.32650
S232        S  0.40249541  0.37727937  0.12215399    -0.32660
H233        H  0.39419671  0.38415747  0.16992149     0.28710
H234        H  0.45116790  0.01485343  0.01528480     0.28710
H235        H  0.40217110  0.50142584  0.13157425     0.19300
H236        H  0.44658265  0.39931550  0.05833838     0.19310
C237        C  0.77275535  0.40442845  0.21521425    -0.06520
C238        C  0.75965609  0.37985902  0.24351779    -0.17650
C239        C  0.77149552  0.34759760  0.24630392     0.10670
C240        C  0.79753383  0.33947034  0.22116509    -0.06450
C241        C  0.81076047  0.36385792  0.19295949    -0.17680
C242        C  0.79835423  0.39586274  0.18872816     0.10700
S243        S  0.75374466  0.31873372  0.28562575    -0.32650
S244        S  0.81589378  0.42395823  0.14794344    -0.32660
H245        H  0.78957174  0.43449526  0.12655867     0.28710
H246        H  0.74630338  0.29710198  0.24778218     0.28710
H247        H  0.74020414  0.38588752  0.26445727     0.19300
H248        H  0.83060786  0.35767528  0.17313207     0.19310
C249        C  0.77578800  0.09058870  0.21525137    -0.06520
C250        C  0.79081591  0.09965857  0.25683730    -0.17650
C251        C  0.80211972  0.13160491  0.26229928     0.10670
C252        C  0.79943032  0.15476073  0.22442001    -0.06450
C253        C  0.78400806  0.14571851  0.18298582    -0.17680
C254        C  0.77215363  0.11387784  0.17803680     0.10700
S255        S  0.81779885  0.14186559  0.31973539    -0.32650
S256        S  0.75276099  0.10448934  0.12353837    -0.32660
H257        H  0.75731732  0.06972992  0.12435633     0.28710
H258        H  0.80569816  0.17437647  0.32184475     0.28710
H259        H  0.79266389  0.08213955  0.28617134     0.19300
H260        H  0.78163518  0.16332256  0.15390594     0.19310
C261        C  0.62546100  0.00106332  0.05787745    -0.06520
C262        C  0.63247864  0.03041757  0.08264152    -0.17650
C263        C  0.65576899  0.03116124  0.11483247     0.10670
C264        C  0.67254692  0.50177050  0.12293903    -0.06450
C265        C  0.66613098  0.47257150  0.09718215    -0.17680
C266        C  0.64279974  0.47181807  0.06476788     0.10700
S267        S  0.66343006  0.07038892  0.14394276    -0.32650
S268        S  0.63551600  0.43273923  0.03494795    -0.32660
H269        H  0.62134837  0.44615703  0.99473114     0.28710
H270        H  0.69385222  0.06527163  0.14601784     0.28710
H271        H  0.61948710  0.05290814  0.07715121     0.19300
H272        H  0.67887633  0.44998899  0.10332819     0.19310
C273        C  0.84808458  0.25482115  0.38100280    -0.06520
C274        C  0.86469147  0.23030833  0.40467121    -0.17650
C275        C  0.86338620  0.22730742  0.45476307     0.10670
C276        C  0.84565343  0.24983057  0.48181208    -0.06450
C277        C  0.83011456  0.27516997  0.45803155    -0.17680
C278        C  0.83139532  0.27813970  0.40822867     0.10700
S279        S  0.88282006  0.19272131  0.48137424    -0.32770
S280        S  0.81159066  0.31257893  0.38166815    -0.32660
H281        H  0.83074352  0.31642692  0.34247061     0.28710
H282        H  0.86044082  0.18503232  0.51412813     0.28710
H283        H  0.87725171  0.21209032  0.38385716     0.19300
H284        H  0.81701098  0.29309594  0.47850390     0.19310
C285        C  0.94839510  0.24729221  0.79473287    -0.06520
C286        C  0.93523170  0.21757506  0.77997110    -0.17650
C287        C  0.91242991  0.21780448  0.74684783     0.10670
C288        C  0.90183236  0.24846005  0.72891638    -0.06450
C289        C  0.91442226  0.27827418  0.74430159    -0.17680
C290        C  0.93779533  0.27803210  0.77652693     0.10700
S291        S  0.89828357  0.17808245  0.72831107    -0.32650
S292        S  0.95387212  0.31757447  0.79116337    -0.32660
H293        H  0.98278465  0.30532785  0.79356776     0.28710
H294        H  0.89076784  0.18741400  0.68141849     0.28710
H295        H  0.94321322  0.19390294  0.79363155     0.19300
H296        H  0.90642635  0.30183235  0.73025211     0.19310
C297        C  0.23199908  0.19301327  0.48119703    -0.06520
C298        C  0.25151267  0.21370779  0.45700962    -0.17650
C299        C  0.25224496  0.21512265  0.40705871     0.10670
C300        C  0.23286821  0.19554595  0.37991544    -0.06450
C301        C  0.21275245  0.17546411  0.40402321    -0.17680
C302        C  0.21241651  0.17355328  0.45423023     0.10700
S303        S  0.27737905  0.24374978  0.38031826    -0.32650
S304        S  0.18771103  0.14452138  0.48120410    -0.32660
H305        H  0.20813198  0.13224378  0.51448382     0.28710
H306        H  0.29622401  0.21784029  0.36419011     0.28710
H307        H  0.26636206  0.22914158  0.47723145     0.19300
H308        H  0.19792568  0.16015378  0.38358250     0.19310
C309        C  0.17290269  0.19600813  0.73241166    -0.06520
C310        C  0.16848819  0.16758107  0.76025359    -0.17650
C311        C  0.14455358  0.16562561  0.79155921     0.10670
C312        C  0.12510906  0.19331208  0.79692053    -0.06450
C313        C  0.13041970  0.22233448  0.77044196    -0.17680
C314        C  0.15404080  0.22396245  0.73841050     0.10700
S315        S  0.13896170  0.12618487  0.82065973    -0.32650
S316        S  0.15935989  0.26260418  0.70701790    -0.32660
H317        H  0.19003437  0.26008268  0.70518015     0.28710
H318        H  0.10835962  0.12698800  0.81644063     0.28710
H319        H  0.18284986  0.14600037  0.75554987     0.19300
H320        H  0.11611389  0.24397014  0.77481538     0.19310
C321        C  0.34959329  0.44109467  0.47783880    -0.06520
C322        C  0.35767624  0.41173982  0.45300588    -0.17650
C323        C  0.35588753  0.40995877  0.40277496     0.10670
C324        C  0.34651689  0.43836704  0.37703494    -0.06450
C325        C  0.33927086  0.46787024  0.40198281    -0.17680
C326        C  0.34103300  0.46962765  0.45185816     0.10700
S327        S  0.36345020  0.37023270  0.37410780    -0.32650
S328        S  0.33240579  0.00912585  0.48036879    -0.32660
H329        H  0.35315733  0.00550036  0.51702524     0.28710
H330        H  0.34194165  0.37353885  0.33852701     0.28710
H331        H  0.36376490  0.38961197  0.47293711     0.19300
H332        H  0.33237874  0.48986453  0.38236708     0.19310
C333        C  0.30426807  0.03711190  0.63612614    -0.06520
C334        C  0.29364214  0.05028118  0.59311278    -0.17650
C335        C  0.28080976  0.08209945  0.59161055     0.10670
C336        C  0.27816887  0.10125835  0.63429553    -0.06450
C337        C  0.28924228  0.08829834  0.67731166    -0.17680
C338        C  0.30227762  0.05639201  0.67864729     0.10700
S339        S  0.26910062  0.09713453  0.53381985    -0.32650
S340        S  0.31617488  0.04182619  0.73529770    -0.32660
H341        H  0.33923604  0.02225316  0.71600254     0.28710
H342        H  0.27730016  0.13035662  0.54192243     0.28710
H343        H  0.29526688  0.03557756  0.56039469     0.19300
H344        H  0.28741914  0.10292929  0.71009526     0.19310
C345        C  0.27312784  0.28771440  0.63703946    -0.06520
C346        C  0.29574197  0.29458311  0.66921486    -0.17650
C347        C  0.30794819  0.32633965  0.67192345     0.10670
C348        C  0.29760504  0.35191973  0.64147791    -0.06450
C349        C  0.27480777  0.34520615  0.60969206    -0.17680
C350        C  0.26297778  0.31333804  0.60628477     0.10700
S351        S  0.33597604  0.33286854  0.71601425    -0.32650
S352        S  0.23684077  0.30647249  0.55917179    -0.32660
H353        H  0.24905858  0.27549968  0.54469522     0.28710
H354        H  0.32822126  0.36635001  0.72593111     0.28710
H355        H  0.30364220  0.27524704  0.69304010     0.19300
H356        H  0.26730579  0.36442172  0.58530390     0.19310
C357        C  0.40353019  0.44350599  0.72773894    -0.06520
C358        C  0.40730657  0.47180837  0.75695058    -0.17650
C359        C  0.42994731  0.47305592  0.79064759     0.10670
C360        C  0.44897301  0.44517284  0.79557905    -0.06450
C361        C  0.44470885  0.41670050  0.76712195    -0.17680
C362        C  0.42219454  0.41547591  0.73358227     0.10700
S363        S  0.43407978  0.01132819  0.82418861    -0.32650
S364        S  0.41814291  0.37720777  0.69996668    -0.32660
H365        H  0.38751415  0.37907264  0.69789661     0.28710
H366        H  0.44998696  0.99804475  0.86266889     0.28710
H367        H  0.39301466  0.49339750  0.75257555     0.19300
H368        H  0.45925202  0.39526208  0.77085373     0.19310
C369        C  0.73265585  0.00534213  0.47515827    -0.06520
C370        C  0.71199721  0.48585794  0.45160595    -0.17650
C371        C  0.71175749  0.48303816  0.40148548     0.10670
C372        C  0.73178650  0.00126429  0.37400942    -0.06450
C373        C  0.75219338  0.02122890  0.39761768    -0.17680
C374        C  0.75296664  0.02342520  0.44774467     0.10700
S375        S  0.68667351  0.45404822  0.37522482    -0.32650
S376        S  0.77929975  0.05037173  0.47585867    -0.32660
H377        H  0.79258843  0.06179804  0.43353423     0.28710
H378        H  0.70703653  0.44077640  0.34182374     0.28710
H379        H  0.69670605  0.47146187  0.47248436     0.19300
H380        H  0.76753446  0.03537481  0.37653957     0.19310
C381        C  0.78041903  0.41241948  0.63646740    -0.06520
C382        C  0.78045267  0.39509747  0.67998438    -0.17650
C383        C  0.79256623  0.36281710  0.68285580     0.10670
C384        C  0.80487365  0.34762083  0.64130864    -0.06450
C385        C  0.80535190  0.36544272  0.59814463    -0.17680
C386        C  0.79321293  0.39751730  0.59524634     0.10700
S387        S  0.79200224  0.34262195  0.74038785    -0.32650
S388        S  0.79429575  0.41794559  0.53774905    -0.32660
H389        H  0.79679290  0.45050355  0.55626135     0.28710
H390        H  0.81931043  0.32642045  0.73454623     0.28710
H391        H  0.77048526  0.40651008  0.71159918     0.19300
H392        H  0.81468638  0.35398564  0.56602594     0.19310
C393        C  0.76695107  0.09857527  0.63508439    -0.06520
C394        C  0.78940510  0.10482656  0.66780836    -0.17650
C395        C  0.80139217  0.13650521  0.67236013     0.10670
C396        C  0.79139089  0.16262844  0.64272543    -0.06450
C397        C  0.76813796  0.15691567  0.61136251    -0.17680
C398        C  0.75605922  0.12516420  0.60673040     0.10700
S399        S  0.82872990  0.14218942  0.71776786    -0.32650
S400        S  0.72848122  0.11991368  0.56150122    -0.32660
H401        H  0.74016758  0.08957080  0.54370089     0.28710
H402        H  0.82185852  0.17597146  0.72717422     0.28710
H403        H  0.79750631  0.08493482  0.69050924     0.19300
H404        H  0.76050753  0.17680001  0.58821231     0.19310
C405        C  0.62519080  0.99606573  0.79125310    -0.06520
C406        C  0.63544368  0.46635725  0.76906962    -0.17650
C407        C  0.65866780  0.46634436  0.73619994     0.10670
C408        C  0.67238203  0.99656875  0.72553307    -0.06450
C409        C  0.66316366  0.02602348  0.74877962    -0.17680
C410        C  0.63933096  0.02632439  0.78047004     0.10700
S411        S  0.66993305  0.42697074  0.70951054    -0.32650
S412        S  0.62685483  0.06653743  0.80261007    -0.32660
H413        H  0.59694639  0.05934615  0.79983932     0.28710
H414        H  0.69958102  0.43478897  0.70381099     0.28710
H415        H  0.62527441  0.44287701  0.77744338     0.19300
H416        H  0.67361665  0.04931787  0.74015399     0.19310
C417        C  0.59931625  0.49477988  0.82362016     0.02730
C418        C  0.57476933  0.97615359  0.80967113    -0.13420
C419        C  0.54989425  0.97614459  0.83872476     0.00230
C420        C  0.54893789  0.99641100  0.87975199    -0.11950
C421        C  0.57439327  0.51045821  0.89921392     0.02720
C422        C  0.59957502  0.51009919  0.86970242    -0.11370
H423        H  0.57517739  0.96135622  0.77697614     0.08310
H424        H  0.52873854  0.99608482  0.89976566     0.05840
H425        H  0.61953992  0.52106216  0.88247309     0.05690
In426      In  0.73697151  0.50244105  0.62265615     1.36870
C427        C  0.75589005  0.56421102  0.63165598     0.77180
O428        O  0.75760281  0.50601357  0.55061599    -0.61270
O429        O  0.71132791  0.50216067  0.55417379    -0.52180
C430        C  0.76470751  0.94451251  0.63349627     0.69850
O431        O  0.77296534  0.97070132  0.65445477    -0.47030
C432        C  0.69533095  0.49859556  0.68864299     0.74550
O433        O  0.77175583  0.53889128  0.64056078    -0.58890
O434        O  0.69107419  0.49120402  0.64517220    -0.48990
O435        O  0.73003751  0.55771954  0.61975394    -0.55330
C436        C  0.73386673  0.50476336  0.52804208     0.84730
O437        O  0.74218204  0.94791272  0.60833291    -0.57220
O438        O  0.72064175  0.00819169  0.69822627    -0.60510
In439      In  0.33903162  0.94215007  0.62484793     1.36870
C440        C  0.31202249  0.88442878  0.63792182     0.77180
O441        O  0.32207697  0.94621766  0.55035131    -0.61270
O442        O  0.36726811  0.93472467  0.55855675    -0.52180
C443        C  0.31728876  0.50337001  0.63460244     0.69850
O444        O  0.30639225  0.97891969  0.65636399    -0.47030
C445        C  0.38062879  0.94403652  0.69074543     0.74550
O446        O  0.29825397  0.91158482  0.63227273    -0.58890
O447        O  0.38576513  0.93662323  0.64733701    -0.48990
O448        O  0.33932340  0.88704888  0.63801009    -0.55330
C449        C  0.34636092  0.94042009  0.53029358     0.84730
O450        O  0.33966572  0.49660390  0.60953628    -0.57220
O451        O  0.35432268  0.95133682  0.70024965    -0.60510
C452        C  0.47477222  0.94496481  0.82694229     0.02730
C453        C  0.50167514  0.95623397  0.80916174    -0.13420
C454        C  0.52709352  0.95034048  0.83562205     0.00230
C455        C  0.52514973  0.92961616  0.87583458    -0.11950
C456        C  0.49868670  0.92958205  0.90200951     0.02720
C457        C  0.47291466  0.93396102  0.87493158    -0.11370
H458        H  0.50253877  0.97059505  0.77642593     0.08310
H459        H  0.54539245  0.92241877  0.89298223     0.05840
H460        H  0.45158828  0.93096256  0.89113889     0.05690
In461      In  0.23774115  0.69368065  0.62868374     1.36870
C462        C  0.26040547  0.75402002  0.63661376     0.77180
O463        O  0.25676953  0.69872289  0.55581972    -0.61270
O464        O  0.21170210  0.68714237  0.56113990    -0.52180
C465        C  0.26329756  0.63412938  0.63475864     0.69850
O466        O  0.27378049  0.65962782  0.65486506    -0.47030
C467        C  0.19602729  0.69487660  0.69542750     0.74550
O468        O  0.27468884  0.72790960  0.64745263    -0.58890
O469        O  0.19134165  0.70249984  0.65231003    -0.48990
O470        O  0.23435928  0.74903790  0.62477163    -0.55330
C471        C  0.23334441  0.69268987  0.53409876     0.84730
O472        O  0.23923938  0.63897220  0.61395638    -0.57220
O473        O  0.22192781  0.68589540  0.70427617    -0.60510
C474        C  0.09875325  0.69200349  0.82826930     0.02730
C475        C  0.07120825  0.70253548  0.81090202    -0.13420
C476        C  0.04615215  0.69757083  0.83882755     0.00230
C477        C  0.04901177  0.67785123  0.87996145    -0.11950
C478        C  0.07559424  0.67872523  0.90515349     0.02720
C479        C  0.10105926  0.68311866  0.87718180    -0.11370
H480        H  0.06940586  0.71579793  0.77731532     0.08310
H481        H  0.02912058  0.67116353  0.89841402     0.05840
H482        H  0.12247726  0.68173518  0.89331422     0.05690
C483        C  0.97398826  0.74513107  0.82689426     0.02730
C484        C  0.97371444  0.76150317  0.87216638    -0.13420
C485        C  0.99865896  0.76051986  0.90158679     0.00230
C486        C  0.02400568  0.74498572  0.88229057    -0.11950
C487        C  0.02303595  0.72401133  0.84202567     0.02720
C488        C  0.99817008  0.72470996  0.81340189    -0.11370
H489        H  0.95396412  0.77420669  0.88449379     0.08310
H490        H  0.04415470  0.74431206  0.90204609     0.05840
H491        H  0.99744654  0.70922386  0.78140363     0.05690
In492      In  0.83595453  0.75089526  0.62903368     1.36870
C493        C  0.80695485  0.69446458  0.63953334     0.77180
O494        O  0.81883837  0.75642490  0.55506180    -0.61270
O495        O  0.86307411  0.74057528  0.56249049    -0.52180
C496        C  0.81653317  0.81315536  0.64017296     0.69850
O497        O  0.80456022  0.78905975  0.66114129    -0.47030
C498        C  0.87823077  0.74998789  0.69355820     0.74550
O499        O  0.79408678  0.72247440  0.63710595    -0.58890
O500        O  0.88317781  0.75278580  0.64919743    -0.48990
O501        O  0.83439964  0.69554425  0.63726694    -0.55330
C502        C  0.84252855  0.74840213  0.53447230     0.84730
O503        O  0.83875227  0.80530702  0.61548130    -0.57220
O504        O  0.85165245  0.74799456  0.70514162    -0.60510
C505        C  0.59936643  0.50186791  0.02734439     0.02730
C506        C  0.60103653  0.51301852  0.97945434    -0.13420
C507        C  0.57519789  0.51753994  0.95270586     0.00230
C508        C  0.54867303  0.01764205  0.97907423    -0.11950
C509        C  0.54673836  0.99683108  0.01920205     0.02720
C510        C  0.57230491  0.99064289  0.04532023    -0.11370
H511        H  0.62230620  0.51588801  0.96298776     0.08310
H512        H  0.52842210  0.02498352  0.96205146     0.05840
H513        H  0.57154351  0.97605834  0.07785081     0.05690
In514      In  0.73690890  0.49952201  0.22601896     1.36870
C515        C  0.75971639  0.93862469  0.21689700     0.77180
O516        O  0.75647282  0.50444584  0.29840906    -0.61270
O517        O  0.71081992  0.99567386  0.29477830    -0.52180
C518        C  0.76171176  0.55810352  0.21490864     0.69850
O519        O  0.77565969  0.53098234  0.20857300    -0.47030
C520        C  0.69538295  0.00064214  0.15970804     0.74550
O521        O  0.77271702  0.96427863  0.20250452    -0.58890
O522        O  0.69068526  0.00922848  0.20279763    -0.48990
O523        O  0.73473919  0.94446011  0.23481445    -0.55330
C524        C  0.73297683  0.50017704  0.32103510     0.84730
O525        O  0.73492830  0.55524159  0.22414105    -0.57220
O526        O  0.72141225  0.49121610  0.15046248    -0.60510
In527      In  0.33637959  0.94283381  0.23057226     1.36870
C528        C  0.31465896  0.50400277  0.22052755     0.77180
O529        O  0.32055230  0.95054049  0.30541916    -0.61270
O530        O  0.36261641  0.92809026  0.29558125    -0.52180
C531        C  0.30885773  0.88567455  0.21854793     0.69850
O532        O  0.29531973  0.91322988  0.22304940    -0.47030
C533        C  0.37857227  0.94603761  0.16539118     0.74550
O534        O  0.30349358  0.97914252  0.19976397    -0.58890
O535        O  0.38311223  0.95048567  0.20958257    -0.48990
O536        O  0.33696041  0.49739589  0.24515962    -0.55330
C537        C  0.34316630  0.93854968  0.32461820     0.84730
O538        O  0.33627074  0.88761051  0.21921358    -0.57220
O539        O  0.35252686  0.93989865  0.15447367    -0.60510
C540        C  0.47359513  0.95420536  0.02948359     0.02730
C541        C  0.47395087  0.93742003  0.98453145    -0.13420
C542        C  0.49932049  0.93675877  0.95551900     0.00230
C543        C  0.52467363  0.95073952  0.97532299    -0.11950
C544        C  0.52362723  0.97129850  0.01611389     0.02720
C545        C  0.49829167  0.97221141  0.04421182    -0.11370
H546        H  0.45417693  0.92587802  0.97197168     0.08310
H547        H  0.54503162  0.95069067  0.95571707     0.05840
H548        H  0.49761949  0.98726443  0.07665171     0.05690
In549      In  0.23637119  0.69445716  0.23216868     1.36870
C550        C  0.26227620  0.63540097  0.22290051     0.77180
O551        O  0.25663413  0.70075206  0.30347503    -0.61270
O552        O  0.21174992  0.68810104  0.30150260    -0.52180
C553        C  0.25699102  0.75556335  0.22236052     0.69850
O554        O  0.27169858  0.72983273  0.21018387    -0.47030
C555        C  0.19441880  0.69451913  0.16734293     0.74550
O556        O  0.27276863  0.66124599  0.20422490    -0.58890
O557        O  0.18955566  0.70099926  0.21104991    -0.48990
O558        O  0.23828540  0.63965178  0.24470759    -0.55330
C559        C  0.23369010  0.69493302  0.32693128     0.84730
O560        O  0.23165883  0.74965355  0.23740747    -0.57220
O561        O  0.22056145  0.68722646  0.15690124    -0.60510
C562        C  0.10056330  0.70437480  0.03133264     0.02730
C563        C  0.10036415  0.68713687  0.98673078    -0.13420
C564        C  0.07499216  0.68684469  0.95831810     0.00230
C565        C  0.04959952  0.70198918  0.97807958    -0.11950
C566        C  0.05058909  0.72320339  0.01805053     0.02720
C567        C  0.07568679  0.72326335  0.04606714    -0.11370
H568        H  0.12019443  0.67482806  0.97398367     0.08310
H569        H  0.02921952  0.70209864  0.95897242     0.05840
H570        H  0.07597010  0.73831013  0.07848233     0.05690
C571        C  0.97440258  0.75301245  0.03127924     0.02730
C572        C  0.97214534  0.76214840  0.98239296    -0.13420
C573        C  0.99762393  0.76781475  0.95494779     0.00230
C574        C  0.02409797  0.76910279  0.98040663    -0.11950
C575        C  0.02717317  0.74927597  0.02139136     0.02720
C576        C  0.00215994  0.74354505  0.04897096    -0.11370
H577        H  0.95085752  0.76268641  0.96571408     0.08310
H578        H  0.04391437  0.77624838  0.96207936     0.05840
H579        H  0.00424904  0.73032142  0.08253941     0.05690
In580      In  0.83770978  0.74732732  0.23454924     1.36870
C581        C  0.81189411  0.80645447  0.22485732     0.77180
O582        O  0.82058989  0.75490170  0.30871145    -0.61270
O583        O  0.86645123  0.74789477  0.30015679    -0.52180
C584        C  0.81321165  0.68783280  0.22663584     0.69850
O585        O  0.80286169  0.71332125  0.20616075    -0.47030
C586        C  0.87831327  0.74547073  0.16595428     0.74550
O587        O  0.79796368  0.77954966  0.22482949    -0.58890
O588        O  0.88407471  0.74012986  0.20946763    -0.48990
O589        O  0.83926375  0.80296562  0.22837011    -0.55330
C590        C  0.84516051  0.75277276  0.32853954     0.84730
O591        O  0.83645803  0.69276686  0.24915626    -0.57220
O592        O  0.85181607  0.75188271  0.15751121    -0.60510
C593        C  0.94798015  0.75013194  0.06237333    -0.06520
C594        C  0.94444542  0.72123756  0.09006787    -0.17650
C595        C  0.92133529  0.71854225  0.12289873     0.10670
C596        C  0.90093451  0.74509350  0.12811947    -0.06450
C597        C  0.90341416  0.77317856  0.09886495    -0.17680
C598        C  0.92697116  0.77637233  0.06701195     0.10700
S599        S  0.91885446  0.68047620  0.15669441    -0.32650
S600        S  0.93008973  0.81571390  0.03658941    -0.32660
H601        H  0.96057943  0.81762191  0.04144478     0.28710
H602        H  0.88819240  0.68082475  0.16043916     0.28710
H603        H  0.95987906  0.70058115  0.08631203     0.19300
H604        H  0.88787673  0.79373289  0.10304001     0.19310
C605        C  0.12680821  0.70282323  0.06236836    -0.06520
C606        C  0.13907745  0.67133427  0.07295813    -0.17650
C607        C  0.16141792  0.66783604  0.10671610     0.10670
C608        C  0.17143291  0.69634179  0.13109308    -0.06450
C609        C  0.16005103  0.72785789  0.11949256    -0.17680
C610        C  0.13858481  0.73154305  0.08440352     0.10700
S611        S  0.17568433  0.62637087  0.11782026    -0.32650
S612        S  0.12855768  0.77357168  0.06762286    -0.32660
H613        H  0.12175750  0.76560914  0.01974135     0.28710
H614        H  0.18335448  0.63172421  0.16601712     0.28710
H615        H  0.13053376  0.64914287  0.05602132     0.19300
H616        H  0.16861088  0.74988016  0.13692417     0.19310
C617        C  0.30217885  0.53810931  0.21873574    -0.06520
C618        C  0.30189571  0.55696240  0.26143740    -0.17650
C619        C  0.28959252  0.58905366  0.26324852     0.10670
C620        C  0.27730919  0.60284098  0.22143459    -0.06450
C621        C  0.27791340  0.58439190  0.17847326    -0.17680
C622        C  0.29030609  0.55217587  0.17663520     0.10700
S623        S  0.28988132  0.61099622  0.32010444    -0.32650
S624        S  0.29094657  0.53074331  0.11952618    -0.32660
H625        H  0.31854663  0.51553135  0.12601685     0.28710
H626        H  0.29278737  0.64305553  0.30073705     0.28710
H627        H  0.31094459  0.54640001  0.29393976     0.19300
H628        H  0.26844853  0.59501857  0.14635900     0.19310
C629        C  0.26861845  0.78975835  0.21971265    -0.06520
C630        C  0.29153482  0.79592111  0.18742903    -0.17650
C631        C  0.30402996  0.82746601  0.18443137     0.10670
C632        C  0.29395713  0.85346770  0.21511621    -0.06450
C633        C  0.27079315  0.84758880  0.24684654    -0.17680
C634        C  0.25808175  0.81617668  0.24958980     0.10700
S635        S  0.33226100  0.83311206  0.13997799    -0.32650
S636        S  0.23041663  0.81078428  0.29498848    -0.32660
H637        H  0.20835432  0.80542455  0.26097186     0.28710
H638        H  0.32515557  0.86670639  0.13054968     0.28710
H639        H  0.29964091  0.77609620  0.16399439     0.19300
H640        H  0.26328871  0.86726836  0.27107998     0.19310
C641        C  0.40198290  0.94770572  0.12932672    -0.06520
C642        C  0.41190649  0.97911043  0.11564264    -0.17650
C643        C  0.43395320  0.98218748  0.08096788     0.10670
C644        C  0.44730633  0.95311377  0.06087620    -0.06450
C645        C  0.43660145  0.92173938  0.07365825    -0.17680
C646        C  0.41414134  0.91873731  0.10757601     0.10700
S647        S  0.44324824  0.52381950  0.06273381    -0.32650
S648        S  0.40246400  0.87725325  0.12221038    -0.32660
H649        H  0.39413929  0.88415941  0.16995749     0.28710
H650        H  0.45136483  0.51489710  0.01549314     0.28710
H651        H  0.40198195  0.00141067  0.13139110     0.19300
H652        H  0.44652079  0.89930462  0.05834693     0.19310
C653        C  0.77267866  0.90445422  0.21521557    -0.06520
C654        C  0.75959419  0.87987351  0.24351766    -0.17650
C655        C  0.77145643  0.84762281  0.24631253     0.10670
C656        C  0.79750236  0.83951637  0.22118199    -0.06450
C657        C  0.81071713  0.86391602  0.19298330    -0.17680
C658        C  0.79828973  0.89591059  0.18874517     0.10700
S659        S  0.75372316  0.81874577  0.28563558    -0.32650
S660        S  0.81582276  0.92402251  0.14797688    -0.32660
H661        H  0.78950175  0.93451671  0.12654765     0.28710
H662        H  0.74628608  0.79711359  0.24779009     0.28710
H663        H  0.74013519  0.88588444  0.26444890     0.19300
H664        H  0.83057161  0.85775036  0.17316488     0.19310
C665        C  0.77585021  0.59061934  0.21527857    -0.06520
C666        C  0.79085272  0.59971142  0.25687942    -0.17650
C667        C  0.80214052  0.63166571  0.26233493     0.10670
C668        C  0.79945701  0.65480839  0.22443832    -0.06450
C669        C  0.78405498  0.64574628  0.18299293    -0.17680
C670        C  0.77221874  0.61389634  0.17804750     0.10700
S671        S  0.81779522  0.64195170  0.31978038    -0.32650
S672        S  0.75284615  0.60448458  0.12353767    -0.32660
H673        H  0.75740828  0.56972669  0.12437878     0.28710
H674        H  0.80569023  0.67446140  0.32185250     0.28710
H675        H  0.79269704  0.58220133  0.28622507     0.19300
H676        H  0.78168533  0.66334153  0.15390134     0.19310
C677        C  0.62563258  0.50098170  0.05780920    -0.06520
C678        C  0.63263500  0.53034334  0.08256826    -0.17650
C679        C  0.65592228  0.53110550  0.11476344     0.10670
C680        C  0.67238080  0.00181473  0.12299847    -0.06450
C681        C  0.66594467  0.97262135  0.09724349    -0.17680
C682        C  0.64261043  0.97188631  0.06483478     0.10700
S683        S  0.66355848  0.57033970  0.14387556    -0.32650
S684        S  0.63529933  0.93281221  0.03502074    -0.32660
H685        H  0.62114434  0.94623722  0.99479723     0.28710
H686        H  0.69398055  0.56523547  0.14600053     0.28710
H687        H  0.61963077  0.55282420  0.07707624     0.19300
H688        H  0.67867796  0.95002949  0.10338423     0.19310
C689        C  0.84808400  0.75485960  0.38100509    -0.06520
C690        C  0.86469015  0.73034277  0.40466680    -0.17650
C691        C  0.86338339  0.72733415  0.45475776     0.10670
C692        C  0.84565007  0.74985367  0.48181199    -0.06450
C693        C  0.83011018  0.77519515  0.45803788    -0.17680
C694        C  0.83139191  0.77817208  0.40823638     0.10700
S695        S  0.88281615  0.69274393  0.48136063    -0.32770
S696        S  0.81158386  0.81261197  0.38168401    -0.32660
H697        H  0.83073642  0.81646784  0.34248796     0.28710
H698        H  0.86044000  0.68505656  0.51412107     0.28710
H699        H  0.87725117  0.71212819  0.38384775     0.19300
H700        H  0.81700540  0.79311762  0.47851445     0.19310
C701        C  0.94839923  0.74729896  0.79472669    -0.06520
C702        C  0.93523487  0.71758383  0.77995873    -0.17650
C703        C  0.91243321  0.71781767  0.74683522     0.10670
C704        C  0.90183655  0.74847573  0.72891065    -0.06450
C705        C  0.91442759  0.77828761  0.74430174    -0.17680
C706        C  0.93780076  0.77804113  0.77652656     0.10700
S707        S  0.89828622  0.67809806  0.72828872    -0.32650
S708        S  0.95387954  0.81758126  0.79116942    -0.32660
H709        H  0.98279164  0.80533259  0.79356866     0.28710
H710        H  0.89077167  0.68743544  0.68139809     0.28710
H711        H  0.94321544  0.69390995  0.79361452     0.19300
H712        H  0.90643246  0.80184758  0.73025724     0.19310
C713        C  0.23199672  0.69299979  0.48119922    -0.06520
C714        C  0.25150874  0.71369474  0.45700904    -0.17650
C715        C  0.25223978  0.71510759  0.40705788     0.10670
C716        C  0.23286353  0.69552802  0.37991778    -0.06450
C717        C  0.21274871  0.67544688  0.40402851    -0.17680
C718        C  0.21241385  0.67353835  0.45423539     0.10700
S719        S  0.27737154  0.74373549  0.38031307    -0.32650
S720        S  0.18770946  0.64450696  0.48121292    -0.32660
H721        H  0.20813299  0.63222784  0.51448738     0.28710
H722        H  0.29621755  0.71782678  0.36418571     0.28710
H723        H  0.26635800  0.72913005  0.47722875     0.19300
H724        H  0.19792196  0.66013499  0.38359026     0.19310
C725        C  0.17290468  0.69599883  0.73241295    -0.06520
C726        C  0.16848916  0.66757301  0.76025672    -0.17650
C727        C  0.14455411  0.66561951  0.79156155     0.10670
C728        C  0.12511029  0.69330687  0.79692023    -0.06450
C729        C  0.13042218  0.72232826  0.77044009    -0.17680
C730        C  0.15404369  0.72395418  0.73840920     0.10700
S731        S  0.13896061  0.62617984  0.82066405    -0.32650
S732        S  0.15936424  0.76259439  0.70701338    -0.32660
H733        H  0.19003858  0.76007089  0.70517411     0.28710
H734        H  0.10835867  0.62698368  0.81644236     0.28710
H735        H  0.18285020  0.64599160  0.75555473     0.19300
H736        H  0.11611693  0.74396459  0.77481153     0.19310
C737        C  0.34957277  0.94109656  0.47783385    -0.06520
C738        C  0.35765434  0.91174155  0.45300083    -0.17650
C739        C  0.35586377  0.90996113  0.40277072     0.10670
C740        C  0.34649123  0.93836978  0.37703369    -0.06450
C741        C  0.33925055  0.96787438  0.40198115    -0.17680
C742        C  0.34101604  0.96963155  0.45185548     0.10700
S743        S  0.36342689  0.87023576  0.37410149    -0.32650
S744        S  0.33241550  0.50912089  0.48036901    -0.32660
H745        H  0.35316588  0.50550091  0.51702819     0.28710
H746        H  0.34191979  0.87354194  0.33851854     0.28710
H747        H  0.36374223  0.88961310  0.47293140     0.19300
H748        H  0.33235837  0.98986893  0.38236605     0.19310
C749        C  0.30428670  0.53710737  0.63613054    -0.06520
C750        C  0.29365873  0.55027411  0.59311688    -0.17650
C751        C  0.28082090  0.58208975  0.59161410     0.10670
C752        C  0.27817695  0.60124867  0.63429873    -0.06450
C753        C  0.28925147  0.58829077  0.67731537    -0.17680
C754        C  0.30229163  0.55638696  0.67865174     0.10700
S755        S  0.26910862  0.59712155  0.53382333    -0.32650
S756        S  0.31618820  0.54182321  0.73530368    -0.32660
H757        H  0.33925348  0.52225546  0.71601099     0.28710
H758        H  0.27730349  0.63034543  0.54192417     0.28710
H759        H  0.29528585  0.53557044  0.56039918     0.19300
H760        H  0.28742552  0.60292143  0.71009889     0.19310
C761        C  0.27311604  0.78770642  0.63703337    -0.06520
C762        C  0.29572741  0.79458115  0.66921093    -0.17650
C763        C  0.30792767  0.82634060  0.67191904     0.10670
C764        C  0.29758129  0.85191736  0.64147040    -0.06450
C765        C  0.27478666  0.84519765  0.60968240    -0.17680
C766        C  0.26296258  0.81332667  0.60627592     0.10700
S767        S  0.33595231  0.83287708  0.71601303    -0.32650
S768        S  0.23682884  0.80645335  0.55916041    -0.32660
H769        H  0.24905134  0.77548169  0.54468940     0.28710
H770        H  0.32819154  0.86635731  0.72592652     0.28710
H771        H  0.30362989  0.77524758  0.69303840     0.19300
H772        H  0.26728259  0.86441060  0.58529172     0.19310
C773        C  0.40351080  0.94348812  0.72769583    -0.06520
C774        C  0.40729157  0.97178428  0.75691708    -0.17650
C775        C  0.42993565  0.97302316  0.79060734     0.10670
C776        C  0.44895931  0.94513651  0.79552155    -0.06450
C777        C  0.44469287  0.91667149  0.76705109    -0.17680
C778        C  0.42217539  0.91545606  0.73351768     0.10700
S779        S  0.43408565  0.51136570  0.82421828    -0.32650
S780        S  0.41811876  0.87719603  0.69988469    -0.32660
H781        H  0.38748956  0.87906030  0.69783336     0.28710
H782        H  0.44996700  0.49807760  0.86272450     0.28710
H783        H  0.39300010  0.99337526  0.75255523     0.19300
H784        H  0.45923466  0.89523074  0.77077099     0.19310
C785        C  0.73280042  0.50531427  0.47514775    -0.06520
C786        C  0.71184378  0.98589264  0.45162525    -0.17650
C787        C  0.71159306  0.98307736  0.40150304     0.10670
C788        C  0.73195250  0.50122764  0.37400045    -0.06450
C789        C  0.75235833  0.52119000  0.39761520    -0.17680
C790        C  0.75312048  0.52339127  0.44774354     0.10700
S791        S  0.68649931  0.95409468  0.37525216    -0.32650
S792        S  0.77944592  0.55034141  0.47586988    -0.32660
H793        H  0.79275651  0.56174689  0.43355189     0.28710
H794        H  0.70686344  0.94080015  0.34187105     0.28710
H795        H  0.69655727  0.97149513  0.47251080     0.19300
H796        H  0.76770228  0.53533493  0.37654117     0.19310
C797        C  0.78038912  0.91243158  0.63645686    -0.06520
C798        C  0.78042470  0.89510912  0.67997343    -0.17650
C799        C  0.79254934  0.86283426  0.68284794     0.10670
C800        C  0.80486599  0.84764319  0.64130415    -0.06450
C801        C  0.80534404  0.86546658  0.59814107    -0.17680
C802        C  0.79319418  0.89753625  0.59523983     0.10700
S803        S  0.79198687  0.84263917  0.74038009    -0.32650
S804        S  0.79427777  0.91796662  0.53774410    -0.32660
H805        H  0.79675152  0.95052725  0.55625723     0.28710
H806        H  0.81930068  0.82644925  0.73454478     0.28710
H807        H  0.77045009  0.90651694  0.71158574     0.19300
H808        H  0.81468588  0.85401383  0.56602491     0.19310
C809        C  0.76697993  0.59858960  0.63510262    -0.06520
C810        C  0.78941704  0.60485623  0.66785163    -0.17650
C811        C  0.80139441  0.63653995  0.67240129     0.10670
C812        C  0.79139957  0.66265216  0.64274142    -0.06450
C813        C  0.76816151  0.65692477  0.61135504    -0.17680
C814        C  0.75609363  0.62516807  0.60672316     0.10700
S815        S  0.82871288  0.64224471  0.71783509    -0.32650
S816        S  0.72854031  0.61989582  0.56145872    -0.32660
H817        H  0.74025388  0.58956094  0.54367513     0.28710
H818        H  0.82183820  0.67603054  0.72720503     0.28710
H819        H  0.79751347  0.58497240  0.69057105     0.19300
H820        H  0.76053702  0.67680080  0.58818516     0.19310
C821        C  0.62521180  0.49608087  0.79116779    -0.06520
C822        C  0.63543394  0.96634038  0.76917224    -0.17650
C823        C  0.65865555  0.96632907  0.73629779     0.10670
C824        C  0.67240535  0.49658094  0.72545530    -0.06450
C825        C  0.66319048  0.52603523  0.74870626    -0.17680
C826        C  0.63935693  0.52633750  0.78039409     0.10700
S827        S  0.66992983  0.92695382  0.70962347    -0.32650
S828        S  0.62688903  0.56654898  0.80255277    -0.32660
H829        H  0.59697904  0.55935931  0.79981563     0.28710
H830        H  0.69957422  0.93478435  0.70390949     0.28710
H831        H  0.62527196  0.94285780  0.77755644     0.19300
H832        H  0.67365068  0.54932754  0.74009285     0.19310
loop_ 
_geom_bond_atom_site_label_1 
_geom_bond_atom_site_label_2 
_geom_bond_distance 
_geom_bond_site_symmetry_2 
_ccdc_geom_bond_type 
C1            C6   1.419   1_565  A
C1          C418   1.413       .  A
C1          C405   1.488       .  S
C2            C3   1.393       .  A
C2          C417   1.413       .  A
C2            H7   1.083       .  S
C3            C4   1.397       .  A
C3           C38   1.484       .  S
C4          C421   1.409       .  A
C4            H8   1.077       .  S
C5            C6   1.411       .  A
C5          C420   1.409   1_545  A
C5           C91   1.515       .  S
C6            H9   1.082       .  S
In10         O12   2.219       .  S
In10         O13   2.246       .  S
In10         O17   2.235       .  S
In10         O18   2.243   1_545  S
In10         O19   2.235       .  S
In10        O437   2.227   1_545  S
In10        O431   2.257   1_545  S
In10        O438   2.237       .  S
C11         C393   1.479       .  S
C11          O17   1.265       .  A
C11          O19   1.262       .  A
O12          C20   1.261       .  A
O13          C20   1.265       .  A
C14         C381   1.465       .  S
C14          O21   1.257       .  A
C14          O15   1.262       .  A
O15        In426   2.257       .  S
C16         C408   1.466       .  S
C16          O18   1.261       .  A
C16         O438   1.258   1_565  A
C20         C369   1.475       .  S
O21        In426   2.227       .  S
O22        In426   2.237       .  S
O22         C432   1.258       .  A
In23         O25   2.226       .  S
In23         O26   2.262       .  S
In23         O28   2.250       .  S
In23         O30   2.260       .  S
In23         O31   2.241       .  S
In23         O32   2.241       .  S
In23         O35   2.248       .  S
In23        O450   2.228       .  S
C24         C348   1.475       .  S
C24          O30   1.260       .  A
C24          O32   1.256       .  A
O25          C33   1.258       .  A
O26          C33   1.262       .  A
C27         C333   1.468       .  S
C27          O34   1.261   1_545  A
C27         O444   1.264   1_545  A
O28         C443   1.264       .  A
C29         C357   1.473       .  S
C29          O31   1.262       .  A
C29          O35   1.261       .  A
C33         C321   1.468       .  S
O34        In439   2.228       .  S
C36          C37   1.408       .  A
C36          C41   1.413       .  A
C36         C360   1.475       .  S
C37          C38   1.399       .  A
C37          H42   1.083       .  S
C38          C39   1.403       .  A
C39          C40   1.410       .  A
C39          H43   1.081       .  S
C40          C41   1.414       .  A
C40         C126   1.516       .  S
C41          H44   1.082       .  S
In45         O47   2.216       .  S
In45         O48   2.250       .  S
In45         O56   2.227       .  S
In45         O50   2.252       .  S
In45         O52   2.257       .  S
In45         O53   2.241       .  S
In45         O54   2.225       .  S
In45         O57   2.248       .  S
C46         C345   1.479       .  S
C46          O52   1.264       .  A
C46          O54   1.258       .  A
O47          C55   1.261       .  A
O48          C55   1.265       .  A
C49         C336   1.473       .  S
C49          O56   1.261       .  A
C49          O50   1.265       .  A
C51         C309   1.472       .  S
C51          O53   1.260       .  A
C51          O57   1.260       .  A
C55         C297   1.475       .  S
C58          C59   1.413       .  A
C58          C63   1.415       .  A
C58         C312   1.487       .  S
C59          C60   1.400       .  A
C59          H64   1.083       .  S
C60          C61   1.403       .  A
C60          C71   1.487       .  S
C61          C62   1.410       .  A
C61          H65   1.082       .  S
C62          C63   1.412       .  A
C62         C148   1.514       .  S
C63          H66   1.082       .  S
C67          C68   1.417       .  A
C67          C72   1.413       .  A
C67         C285   1.481       .  S
C68          C69   1.410       .  A
C68          H73   1.083       .  S
C69          C70   1.409   1_655  A
C69         C157   1.513       .  S
C70          C71   1.398       .  A
C70          H74   1.077       .  S
C71          C72   1.394   1_455  A
C72          H75   1.083       .  S
In76         O78   2.221       .  S
In76         O79   2.256       .  S
In76         O87   2.222       .  S
In76         O81   2.257       .  S
In76         O83   2.257       .  S
In76         O84   2.240       .  S
In76         O85   2.234       .  S
In76         O88   2.246       .  S
C77         C396   1.474       .  S
C77          O83   1.261       .  A
C77          O85   1.259       .  A
O78          C86   1.259       .  A
O79          C86   1.263       .  A
C80         C384   1.473       .  S
C80          O87   1.258       .  A
C80          O81   1.264       .  A
C82         C288   1.468       .  S
C82          O84   1.261       .  A
C82          O88   1.261       .  A
C86         C276   1.475       .  S
C89          C90   1.412   1_554  A
C89         C510   1.410   1_545  A
C89         C261   1.476       .  S
C90          C91   1.412       .  A
C90          H95   1.082       .  S
C91         C508   1.411       .  A
C92          C93   1.403   1_556  A
C92         C507   1.411       .  A
C92          H96   1.082       .  S
C93          C94   1.402       .  A
C93         C128   1.487       .  S
C94         C505   1.410       .  A
C94          H97   1.083       .  S
In98        O100   2.220   1_565  S
In98        O109   2.235   1_565  S
In98        O103   2.247   1_565  S
In98        O110   2.249       .  S
In98        O517   2.255       .  S
In98        O521   2.242       .  S
In98        O522   2.240   1_565  S
In98        O523   2.226       .  S
C99         C237   1.484       .  S
C99         O105   1.264       .  A
C99         O107   1.262       .  A
O100        C108   1.258       .  A
O101       In514   2.255       .  S
O101        C524   1.263       .  A
C102        C249   1.465       .  S
C102        O109   1.259       .  A
C102        O103   1.262       .  A
C104        C264   1.473       .  S
C104        O106   1.262       .  A
C104        O526   1.261       .  A
O105       In514   2.242       .  S
O106       In514   2.240       .  S
O107       In514   2.226       .  S
C108        C372   1.476       .  S
C108        O517   1.263   1_545  A
O110        C520   1.261   1_565  A
In111       O113   2.220       .  S
In111       O114   2.257       .  S
In111       O122   2.233       .  S
In111       O116   2.250       .  S
In111       O118   2.255       .  S
In111       O119   2.241       .  S
In111       O123   2.242       .  S
In111       O536   2.221       .  S
C112        C201   1.474       .  S
C112        O120   1.259   1_545  A
C112        O534   1.265   1_545  A
O113        C121   1.258       .  A
O114        C121   1.263       .  A
C115        C216   1.473       .  S
C115        O122   1.259       .  A
C115        O116   1.262       .  A
C117        C225   1.467       .  S
C117        O119   1.261       .  A
C117        O123   1.260       .  A
O118        C528   1.265       .  A
O120       In527   2.221       .  S
C121        C324   1.469       .  S
C124        C125   1.416   1_554  A
C124        C129   1.413       .  A
C124        C228   1.485       .  S
C125        C126   1.410       .  A
C125        H130   1.082       .  S
C126        C127   1.411       .  A
C127        C128   1.398   1_556  A
C127        H131   1.077       .  S
C128        C129   1.395       .  A
C129        H132   1.082       .  S
In133       O135   2.212       .  S
In133       O136   2.248       .  S
In133       O144   2.223       .  S
In133       O138   2.254       .  S
In133       O140   2.246       .  S
In133       O141   2.238       .  S
In133       O142   2.227       .  S
In133       O145   2.241       .  S
C134        C204   1.465       .  S
C134        O140   1.264       .  A
C134        O142   1.260       .  A
O135        C143   1.260       .  A
O136        C143   1.265       .  A
C137        C213   1.481       .  S
C137        O144   1.258       .  A
C137        O138   1.265       .  A
C139        C192   1.464       .  S
C139        O141   1.260       .  A
C139        O145   1.259       .  A
C143        C300   1.476       .  S
C146        C147   1.417   1_554  A
C146        C151   1.414       .  A
C146        C189   1.486       .  S
C147        C148   1.410       .  A
C147        H152   1.082       .  S
C148        C149   1.409       .  A
C149        C150   1.397   1_556  A
C149        H153   1.077       .  S
C150        C151   1.393       .  A
C150        C159   1.486       .  S
C151        H154   1.082       .  S
C155        C156   1.417   1_554  A
C155        C160   1.413   1_655  A
C155        C177   1.490       .  S
C156        C157   1.413       .  A
C156        H161   1.082       .  S
C157        C158   1.410   1_655  A
C158        C159   1.403   1_556  A
C158        H162   1.082       .  S
C159        C160   1.398       .  A
C160        H163   1.082       .  S
In164       O166   2.221       .  S
In164       O167   2.259       .  S
In164       O175   2.229       .  S
In164       O169   2.259       .  S
In164       O171   2.233       .  S
In164       O172   2.244       .  S
In164       O173   2.240       .  S
In164       O176   2.247       .  S
C165        C240   1.474       .  S
C165        O171   1.262       .  A
C165        O173   1.263       .  A
O166        C174   1.258       .  A
O167        C174   1.263       .  A
C168        C252   1.476       .  S
C168        O175   1.257       .  A
C168        O169   1.261       .  A
C170        C180   1.473       .  S
C170        O172   1.261       .  A
C170        O176   1.260       .  A
C174        C273   1.470       .  S
C177        C178   1.408       .  A
C177        C182   1.418       .  A
C178        C179   1.400       .  A
C178        H187   1.083       .  S
C179        C180   1.410       .  A
C179        S183   1.804       .  S
C180        C181   1.401       .  A
C181        C182   1.400       .  A
C181        H188   1.084       .  S
C182        S184   1.803       .  S
S183        H186   1.407       .  S
S184        H185   1.407       .  S
C189        C190   1.407       .  A
C189        C194   1.416       .  A
C190        C191   1.400       .  A
C190        H199   1.084       .  S
C191        C192   1.409       .  A
C191        S195   1.805       .  S
C192        C193   1.399       .  A
C193        C194   1.397       .  A
C193        H200   1.084       .  S
C194        S196   1.804       .  S
S195        H198   1.406       .  S
S196        H197   1.407       .  S
C201        C202   1.404       .  A
C201        C206   1.413       .  A
C202        C203   1.396       .  A
C202        H211   1.084       .  S
C203        C204   1.409       .  A
C203        S207   1.805       .  S
C204        C205   1.401       .  A
C205        C206   1.402       .  A
C205        H212   1.084       .  S
C206        S208   1.801       .  S
S207        H210   1.406       .  S
S208        H209   1.407       .  S
C213        C214   1.404       .  A
C213        C218   1.418       .  A
C214        C215   1.399       .  A
C214        H223   1.083       .  S
C215        C216   1.412       .  A
C215        S219   1.802       .  S
C216        C217   1.400       .  A
C217        C218   1.398       .  A
C217        H224   1.084       .  S
C218        S220   1.801       .  S
S219        H222   1.407       .  S
S220        H221   1.407       .  S
C225        C226   1.400       .  A
C225        C230   1.410       .  A
C226        C227   1.400       .  A
C226        H235   1.084       .  S
C227        C228   1.416       .  A
C227        S647   1.804       .  S
C228        C229   1.405       .  A
C229        C230   1.399       .  A
C229        H236   1.084       .  S
C230        S232   1.804       .  S
S231        C643   1.804   1_545  S
S231        H234   1.407       .  S
S232        H233   1.405       .  S
C237        C238   1.406       .  A
C237        C242   1.417       .  A
C238        C239   1.396       .  A
C238        H247   1.084       .  S
C239        C240   1.411       .  A
C239        S243   1.800       .  S
C240        C241   1.402       .  A
C241        C242   1.400       .  A
C241        H248   1.084       .  S
C242        S244   1.801       .  S
S243        H246   1.407       .  S
S244        H245   1.408       .  S
C249        C250   1.400       .  A
C249        C254   1.409       .  A
C250        C251   1.397       .  A
C250        H259   1.084       .  S
C251        C252   1.415       .  A
C251        S255   1.805       .  S
C252        C253   1.405       .  A
C253        C254   1.401       .  A
C253        H260   1.083       .  S
C254        S256   1.804       .  S
S255        H258   1.408       .  S
S256        H257   1.406       .  S
C261        C262   1.402       .  A
C261        C682   1.413   1_545  A
C262        C263   1.398       .  A
C262        H271   1.084       .  S
C263        C680   1.411       .  A
C263        S267   1.804       .  S
C264        C265   1.404       .  A
C264        C679   1.411       .  A
C265        C266   1.404       .  A
C265        H272   1.084       .  S
C266        C677   1.413       .  A
C266        S268   1.804       .  S
S267        H270   1.406       .  S
S268        H269   1.404   1_554  S
C273        C274   1.403       .  A
C273        C278   1.410       .  A
C274        C275   1.402       .  A
C274        H283   1.084       .  S
C275        C276   1.413       .  A
C275        S279   1.802       .  S
C276        C277   1.403       .  A
C277        C278   1.394       .  A
C277        H284   1.084       .  S
C278        S280   1.805       .  S
S279        H282   1.407       .  S
S280        H281   1.407       .  S
C285        C286   1.404       .  A
C285        C290   1.415       .  A
C286        C287   1.398       .  A
C286        H295   1.084       .  S
C287        C288   1.410       .  A
C287        S291   1.802       .  S
C288        C289   1.401       .  A
C289        C290   1.401       .  A
C289        H296   1.084       .  S
C290        S292   1.804       .  S
S291        H294   1.405       .  S
S292        H293   1.406       .  S
C297        C298   1.402       .  A
C297        C302   1.414       .  A
C298        C299   1.393       .  A
C298        H307   1.084       .  S
C299        C300   1.413       .  A
C299        S303   1.801       .  S
C300        C301   1.405       .  A
C301        C302   1.401       .  A
C301        H308   1.084       .  S
C302        S304   1.802       .  S
S303        H306   1.408       .  S
S304        H305   1.407       .  S
C309        C310   1.400       .  A
C309        C314   1.411       .  A
C310        C311   1.400       .  A
C310        H319   1.084       .  S
C311        C312   1.417       .  A
C311        S315   1.804       .  S
C312        C313   1.406       .  A
C313        C314   1.400       .  A
C313        H320   1.083       .  S
C314        S316   1.804       .  S
S315        H318   1.407       .  S
S316        H317   1.407       .  S
C321        C322   1.403       .  A
C321        C326   1.410       .  A
C322        C323   1.403       .  A
C322        H331   1.084       .  S
C323        C324   1.412       .  A
C323        S327   1.803       .  S
C324        C325   1.401       .  A
C325        C326   1.393       .  A
C325        H332   1.084       .  S
C326        S744   1.802       .  S
S327        H330   1.407       .  S
S328        C742   1.802   1_545  S
S328        H329   1.406       .  S
C333        C334   1.400       .  A
C333        C338   1.410       .  A
C334        C335   1.396       .  A
C334        H343   1.083       .  S
C335        C336   1.413       .  A
C335        S339   1.805       .  S
C336        C337   1.404       .  A
C337        C338   1.403       .  A
C337        H344   1.083       .  S
C338        S340   1.803       .  S
S339        H342   1.406       .  S
S340        H341   1.406       .  S
C345        C346   1.403       .  A
C345        C350   1.417       .  A
C346        C347   1.400       .  A
C346        H355   1.083       .  S
C347        C348   1.413       .  A
C347        S351   1.803       .  S
C348        C349   1.401       .  A
C349        C350   1.399       .  A
C349        H356   1.084       .  S
C350        S352   1.804       .  S
S351        H354   1.407       .  S
S352        H353   1.408       .  S
C357        C358   1.404       .  A
C357        C362   1.411       .  A
C358        C359   1.404       .  A
C358        H367   1.084       .  S
C359        C360   1.413       .  A
C359        S779   1.805       .  S
C360        C361   1.401       .  A
C361        C362   1.397       .  A
C361        H368   1.084       .  S
C362        S364   1.803       .  S
S363        C775   1.805   1_545  S
S363        H366   1.403   1_545  S
S364        H365   1.405       .  S
C369        C374   1.413       .  A
C369        C786   1.404   1_545  A
C370        C371   1.400       .  A
C370        C785   1.404       .  A
C370        H379   1.084       .  S
C371        C788   1.413       .  A
C371        S375   1.802       .  S
C372        C373   1.404       .  A
C372        C787   1.413   1_545  A
C373        C374   1.399       .  A
C373        H380   1.083       .  S
C374        S376   1.810       .  S
S375        H378   1.408       .  S
S376        H377   1.407       .  S
C381        C382   1.402       .  A
C381        C386   1.409       .  A
C382        C383   1.402       .  A
C382        H391   1.084       .  S
C383        C384   1.413       .  A
C383        S387   1.801       .  S
C384        C385   1.404       .  A
C385        C386   1.395       .  A
C385        H392   1.084       .  S
C386        S388   1.805       .  S
S387        H390   1.407       .  S
S388        H389   1.406       .  S
C393        C394   1.403       .  A
C393        C398   1.417       .  A
C394        C395   1.397       .  A
C394        H403   1.084       .  S
C395        C396   1.411       .  A
C395        S399   1.801       .  S
C396        C397   1.402       .  A
C397        C398   1.401       .  A
C397        H404   1.084       .  S
C398        S400   1.803       .  S
S399        H402   1.407       .  S
S400        H401   1.406       .  S
C405        C410   1.418   1_565  A
C405        C822   1.408       .  A
C406        C407   1.399       .  A
C406        C821   1.408       .  A
C406        H415   1.083       .  S
C407        C824   1.408       .  A
C407        S411   1.805       .  S
C408        C409   1.399   1_565  A
C408        C823   1.408       .  A
C409        C410   1.399       .  A
C409        H416   1.084       .  S
C410        S412   1.803       .  S
S411        H414   1.407       .  S
S412        H413   1.407       .  S
C417        C422   1.419       .  A
C417        C821   1.488       .  S
C418        C419   1.393       .  A
C418        H423   1.083       .  S
C419        C420   1.397       .  A
C419        C454   1.484       .  S
C420        H424   1.077       .  S
C421        C422   1.411       .  A
C421        C507   1.515       .  S
C422        H425   1.082       .  S
In426       O428   2.219       .  S
In426       O429   2.246       .  S
In426       O433   2.235       .  S
In426       O434   2.243       .  S
In426       O435   2.235       .  S
C427        C809   1.479       .  S
C427        O433   1.265       .  A
C427        O435   1.262       .  A
O428        C436   1.261       .  A
O429        C436   1.265       .  A
C430        C797   1.465       .  S
C430        O437   1.257       .  A
C430        O431   1.262       .  A
C432        C824   1.466       .  S
C432        O434   1.261       .  A
C436        C785   1.475       .  S
In439       O441   2.226       .  S
In439       O442   2.262       .  S
In439       O444   2.250       .  S
In439       O446   2.260       .  S
In439       O447   2.241       .  S
In439       O448   2.241       .  S
In439       O451   2.248       .  S
C440        C764   1.475       .  S
C440        O446   1.260       .  A
C440        O448   1.256       .  A
O441        C449   1.258       .  A
O442        C449   1.262       .  A
C443        C749   1.468       .  S
C443        O450   1.261       .  A
C445        C773   1.473       .  S
C445        O447   1.262       .  A
C445        O451   1.261       .  A
C449        C737   1.468       .  S
C452        C453   1.408       .  A
C452        C457   1.413       .  A
C452        C776   1.475       .  S
C453        C454   1.399       .  A
C453        H458   1.083       .  S
C454        C455   1.403       .  A
C455        C456   1.410       .  A
C455        H459   1.081       .  S
C456        C457   1.414       .  A
C456        C542   1.516       .  S
C457        H460   1.082       .  S
In461       O463   2.216       .  S
In461       O464   2.250       .  S
In461       O472   2.227       .  S
In461       O466   2.252       .  S
In461       O468   2.257       .  S
In461       O469   2.241       .  S
In461       O470   2.225       .  S
In461       O473   2.248       .  S
C462        C761   1.479       .  S
C462        O468   1.264       .  A
C462        O470   1.258       .  A
O463        C471   1.261       .  A
O464        C471   1.265       .  A
C465        C752   1.473       .  S
C465        O472   1.261       .  A
C465        O466   1.265       .  A
C467        C725   1.472       .  S
C467        O469   1.260       .  A
C467        O473   1.260       .  A
C471        C713   1.475       .  S
C474        C475   1.413       .  A
C474        C479   1.415       .  A
C474        C728   1.487       .  S
C475        C476   1.400       .  A
C475        H480   1.083       .  S
C476        C477   1.403       .  A
C476        C487   1.487       .  S
C477        C478   1.410       .  A
C477        H481   1.082       .  S
C478        C479   1.412       .  A
C478        C564   1.514       .  S
C479        H482   1.082       .  S
C483        C484   1.417       .  A
C483        C488   1.413       .  A
C483        C701   1.481       .  S
C484        C485   1.410       .  A
C484        H489   1.083       .  S
C485        C486   1.409   1_655  A
C485        C573   1.513       .  S
C486        C487   1.398       .  A
C486        H490   1.077       .  S
C487        C488   1.394   1_455  A
C488        H491   1.083       .  S
In492       O494   2.220       .  S
In492       O495   2.256       .  S
In492       O503   2.222       .  S
In492       O497   2.257       .  S
In492       O499   2.257       .  S
In492       O500   2.240       .  S
In492       O501   2.234       .  S
In492       O504   2.246       .  S
C493        C812   1.474       .  S
C493        O499   1.261       .  A
C493        O501   1.259       .  A
O494        C502   1.259       .  A
O495        C502   1.263       .  A
C496        C800   1.473       .  S
C496        O503   1.258       .  A
C496        O497   1.264       .  A
C498        C704   1.468       .  S
C498        O500   1.261       .  A
C498        O504   1.261       .  A
C502        C692   1.474       .  S
C505        C506   1.412   1_554  A
C505        C677   1.476       .  S
C506        C507   1.412       .  A
C506        H511   1.082       .  S
C508        C509   1.403   1_546  A
C508        H512   1.082       .  S
C509        C510   1.402       .  A
C509        C544   1.487       .  S
C510        H513   1.083       .  S
In514       O516   2.220       .  S
In514       O525   2.235       .  S
In514       O519   2.247       .  S
In514       O526   2.249       .  S
C515        C653   1.484       .  S
C515        O521   1.264       .  A
C515        O523   1.262       .  A
O516        C524   1.258       .  A
C518        C665   1.465       .  S
C518        O525   1.259       .  A
C518        O519   1.262       .  A
C520        C680   1.473       .  S
C520        O522   1.262       .  A
C524        C788   1.476       .  S
In527       O529   2.220       .  S
In527       O530   2.257       .  S
In527       O538   2.233       .  S
In527       O532   2.250       .  S
In527       O534   2.255       .  S
In527       O535   2.241       .  S
In527       O539   2.242       .  S
C528        C617   1.474       .  S
C528        O536   1.259       .  A
O529        C537   1.258       .  A
O530        C537   1.263       .  A
C531        C632   1.473       .  S
C531        O538   1.259       .  A
C531        O532   1.262       .  A
C533        C641   1.467       .  S
C533        O535   1.261       .  A
C533        O539   1.260       .  A
C537        C740   1.469       .  S
C540        C541   1.416   1_554  A
C540        C545   1.413       .  A
C540        C644   1.485       .  S
C541        C542   1.410       .  A
C541        H546   1.082       .  S
C542        C543   1.411       .  A
C543        C544   1.398   1_556  A
C543        H547   1.077       .  S
C544        C545   1.395       .  A
C545        H548   1.082       .  S
In549       O551   2.212       .  S
In549       O552   2.248       .  S
In549       O560   2.223       .  S
In549       O554   2.254       .  S
In549       O556   2.246       .  S
In549       O557   2.238       .  S
In549       O558   2.227       .  S
In549       O561   2.240       .  S
C550        C620   1.465       .  S
C550        O556   1.264       .  A
C550        O558   1.260       .  A
O551        C559   1.260       .  A
O552        C559   1.265       .  A
C553        C629   1.481       .  S
C553        O560   1.258       .  A
C553        O554   1.265       .  A
C555        C608   1.464       .  S
C555        O557   1.260       .  A
C555        O561   1.259       .  A
C559        C716   1.476       .  S
C562        C563   1.417   1_554  A
C562        C567   1.414       .  A
C562        C605   1.485       .  S
C563        C564   1.410       .  A
C563        H568   1.082       .  S
C564        C565   1.409       .  A
C565        C566   1.397   1_556  A
C565        H569   1.077       .  S
C566        C567   1.393       .  A
C566        C575   1.486       .  S
C567        H570   1.082       .  S
C571        C572   1.417   1_554  A
C571        C576   1.413   1_655  A
C571        C593   1.490       .  S
C572        C573   1.413       .  A
C572        H577   1.082       .  S
C573        C574   1.410   1_655  A
C574        C575   1.403   1_556  A
C574        H578   1.082       .  S
C575        C576   1.398       .  A
C576        H579   1.082       .  S
In580       O582   2.221       .  S
In580       O583   2.259       .  S
In580       O591   2.229       .  S
In580       O585   2.259       .  S
In580       O587   2.233       .  S
In580       O588   2.244       .  S
In580       O589   2.240       .  S
In580       O592   2.247       .  S
C581        C656   1.474       .  S
C581        O587   1.262       .  A
C581        O589   1.263       .  A
O582        C590   1.258       .  A
O583        C590   1.263       .  A
C584        C668   1.476       .  S
C584        O591   1.257       .  A
C584        O585   1.261       .  A
C586        C596   1.473       .  S
C586        O588   1.261       .  A
C586        O592   1.260       .  A
C590        C689   1.470       .  S
C593        C594   1.408       .  A
C593        C598   1.418       .  A
C594        C595   1.400       .  A
C594        H603   1.083       .  S
C595        C596   1.410       .  A
C595        S599   1.804       .  S
C596        C597   1.401       .  A
C597        C598   1.400       .  A
C597        H604   1.084       .  S
C598        S600   1.803       .  S
S599        H602   1.407       .  S
S600        H601   1.407       .  S
C605        C606   1.407       .  A
C605        C610   1.416       .  A
C606        C607   1.400       .  A
C606        H615   1.084       .  S
C607        C608   1.409       .  A
C607        S611   1.805       .  S
C608        C609   1.399       .  A
C609        C610   1.397       .  A
C609        H616   1.084       .  S
C610        S612   1.804       .  S
S611        H614   1.406       .  S
S612        H613   1.407       .  S
C617        C618   1.404       .  A
C617        C622   1.413       .  A
C618        C619   1.396       .  A
C618        H627   1.084       .  S
C619        C620   1.409       .  A
C619        S623   1.805       .  S
C620        C621   1.401       .  A
C621        C622   1.402       .  A
C621        H628   1.084       .  S
C622        S624   1.801       .  S
S623        H626   1.406       .  S
S624        H625   1.407       .  S
C629        C630   1.404       .  A
C629        C634   1.418       .  A
C630        C631   1.399       .  A
C630        H639   1.083       .  S
C631        C632   1.412       .  A
C631        S635   1.802       .  S
C632        C633   1.400       .  A
C633        C634   1.398       .  A
C633        H640   1.084       .  S
C634        S636   1.801       .  S
S635        H638   1.407       .  S
S636        H637   1.407       .  S
C641        C642   1.400       .  A
C641        C646   1.410       .  A
C642        C643   1.400       .  A
C642        H651   1.084   1_565  S
C643        C644   1.416       .  A
C644        C645   1.405       .  A
C645        C646   1.399       .  A
C645        H652   1.084       .  S
C646        S648   1.804       .  S
S647        H650   1.407       .  S
S648        H649   1.405       .  S
C653        C654   1.406       .  A
C653        C658   1.417       .  A
C654        C655   1.396       .  A
C654        H663   1.084       .  S
C655        C656   1.411       .  A
C655        S659   1.800       .  S
C656        C657   1.402       .  A
C657        C658   1.400       .  A
C657        H664   1.084       .  S
C658        S660   1.801       .  S
S659        H662   1.407       .  S
S660        H661   1.408       .  S
C665        C666   1.400       .  A
C665        C670   1.409       .  A
C666        C667   1.397       .  A
C666        H675   1.084       .  S
C667        C668   1.415       .  A
C667        S671   1.805       .  S
C668        C669   1.405       .  A
C669        C670   1.401       .  A
C669        H676   1.083       .  S
C670        S672   1.804       .  S
S671        H674   1.408       .  S
S672        H673   1.406       .  S
C677        C678   1.402       .  A
C678        C679   1.398       .  A
C678        H687   1.084       .  S
C679        S683   1.804       .  S
C680        C681   1.404   1_545  A
C681        C682   1.404       .  A
C681        H688   1.084       .  S
C682        S684   1.804       .  S
S683        H686   1.406       .  S
S684        H685   1.404   1_554  S
C689        C690   1.403       .  A
C689        C694   1.410       .  A
C690        C691   1.402       .  A
C690        H699   1.084       .  S
C691        C692   1.413       .  A
C691        S695   1.802       .  S
C692        C693   1.403       .  A
C693        C694   1.394       .  A
C693        H700   1.084       .  S
C694        S696   1.805       .  S
S695        H698   1.407       .  S
S696        H697   1.407       .  S
C701        C702   1.404       .  A
C701        C706   1.415       .  A
C702        C703   1.398       .  A
C702        H711   1.084       .  S
C703        C704   1.410       .  A
C703        S707   1.802       .  S
C704        C705   1.401       .  A
C705        C706   1.401       .  A
C705        H712   1.084       .  S
C706        S708   1.804       .  S
S707        H710   1.405       .  S
S708        H709   1.406       .  S
C713        C714   1.402       .  A
C713        C718   1.414       .  A
C714        C715   1.393       .  A
C714        H723   1.084       .  S
C715        C716   1.413       .  A
C715        S719   1.801       .  S
C716        C717   1.405       .  A
C717        C718   1.401       .  A
C717        H724   1.084       .  S
C718        S720   1.802       .  S
S719        H722   1.408       .  S
S720        H721   1.407       .  S
C725        C726   1.400       .  A
C725        C730   1.411       .  A
C726        C727   1.400       .  A
C726        H735   1.084       .  S
C727        C728   1.417       .  A
C727        S731   1.804       .  S
C728        C729   1.406       .  A
C729        C730   1.400       .  A
C729        H736   1.083       .  S
C730        S732   1.804       .  S
S731        H734   1.407       .  S
S732        H733   1.407       .  S
C737        C738   1.403       .  A
C737        C742   1.410       .  A
C738        C739   1.403       .  A
C738        H747   1.084       .  S
C739        C740   1.412       .  A
C739        S743   1.803       .  S
C740        C741   1.401       .  A
C741        C742   1.393       .  A
C741        H748   1.084       .  S
S743        H746   1.407       .  S
S744        H745   1.406       .  S
C749        C750   1.400       .  A
C749        C754   1.410       .  A
C750        C751   1.396       .  A
C750        H759   1.083       .  S
C751        C752   1.413       .  A
C751        S755   1.805       .  S
C752        C753   1.404       .  A
C753        C754   1.403       .  A
C753        H760   1.083       .  S
C754        S756   1.803       .  S
S755        H758   1.406       .  S
S756        H757   1.406       .  S
C761        C762   1.403       .  A
C761        C766   1.417       .  A
C762        C763   1.400       .  A
C762        H771   1.083       .  S
C763        C764   1.413       .  A
C763        S767   1.803       .  S
C764        C765   1.401       .  A
C765        C766   1.399       .  A
C765        H772   1.084       .  S
C766        S768   1.804       .  S
S767        H770   1.407       .  S
S768        H769   1.408       .  S
C773        C774   1.404       .  A
C773        C778   1.411       .  A
C774        C775   1.404       .  A
C774        H783   1.084       .  S
C775        C776   1.413       .  A
C776        C777   1.401       .  A
C777        C778   1.397       .  A
C777        H784   1.084       .  S
C778        S780   1.803       .  S
S779        H782   1.403       .  S
S780        H781   1.405       .  S
C785        C790   1.413       .  A
C786        C787   1.400       .  A
C786        H795   1.084       .  S
C787        S791   1.802       .  S
C788        C789   1.404       .  A
C789        C790   1.399       .  A
C789        H796   1.083       .  S
C790        S792   1.810       .  S
S791        H794   1.408       .  S
S792        H793   1.407       .  S
C797        C798   1.402       .  A
C797        C802   1.409       .  A
C798        C799   1.402       .  A
C798        H807   1.084       .  S
C799        C800   1.413       .  A
C799        S803   1.801       .  S
C800        C801   1.404       .  A
C801        C802   1.395       .  A
C801        H808   1.084       .  S
C802        S804   1.805       .  S
S803        H806   1.407       .  S
S804        H805   1.406       .  S
C809        C810   1.403       .  A
C809        C814   1.417       .  A
C810        C811   1.397       .  A
C810        H819   1.084       .  S
C811        C812   1.411       .  A
C811        S815   1.801       .  S
C812        C813   1.402       .  A
C813        C814   1.401       .  A
C813        H820   1.084       .  S
C814        S816   1.803       .  S
S815        H818   1.407       .  S
S816        H817   1.406       .  S
C821        C826   1.418       .  A
C822        C823   1.399       .  A
C822        H831   1.083       .  S
C823        S827   1.805       .  S
C824        C825   1.399       .  A
C825        C826   1.399       .  A
C825        H832   1.084       .  S
C826        S828   1.803       .  S
S827        H830   1.407       .  S
S828        H829   1.407       .  S
