geometry optimzed in LAMMPS
_audit_creation_date              2020-11-30 
_audit_creation_method            'lammps2cif' 
_symmetry_space_group_name_H-M    'P1' 
_symmetry_Int_Tables_number       1 
_symmetry_cell_setting            triclinic 
loop_ 
_symmetry_equiv_pos_as_xyz 
  x,y,z 
_cell_length_a                    52.10524682 
_cell_length_b                    52.2637405965632 
_cell_length_c                    37.98752537728019 
_cell_angle_alpha                 90.16810958668488 
_cell_angle_beta                  89.9842234637951 
_cell_angle_gamma                 120.0090627788796 
loop_ 
_atom_site_label 
_atom_site_type_symbol 
_atom_site_fract_x 
_atom_site_fract_y 
_atom_site_fract_z 
_atom_site_charge 
C1          C  0.05516781  0.38682438  0.16244954     0.03200
C2          C  0.02998067  0.38563714  0.14834034    -0.12900
C3          C  0.50265632  0.35918826  0.14828033     0.00700
C4          C  0.50078214  0.33381236  0.16428657    -0.11400
C5          C  0.02633012  0.33517762  0.17943498     0.03200
C6          C  0.05348529  0.36173273  0.17728492    -0.10900
H7          H  0.03212700  0.40546951  0.13656168     0.08800
H8          H  0.47971453  0.31335453  0.16511366     0.06400
H9          H  0.07340019  0.36360329  0.18871397     0.06200
C10         C  0.16422228  0.49761618  0.16542685     0.03200
C11         C  0.18930829  0.99943139  0.18115798    -0.12900
C12         C  0.21603460  0.02642382  0.18253656     0.00700
C13         C  0.21766328  0.05146382  0.16597380    -0.11400
C14         C  0.19228125  0.04922398  0.14925354     0.03200
C15         C  0.16554172  0.02218431  0.15039606    -0.10900
H16         H  0.18717962  0.47998726  0.19341109     0.08800
H17         H  0.23834476  0.07233865  0.16607016     0.06400
H18         H  0.14572068  0.01977755  0.13802158     0.06200
C19         C  0.99884848  0.16361214  0.32773149     0.03200
C20         C  0.02337679  0.16590443  0.34525470    -0.12900
C21         C  0.04987276  0.19311953  0.34807082     0.00700
C22         C  0.05160384  0.21827315  0.33146655    -0.11400
C23         C  0.02671669  0.21588384  0.31312437     0.03200
C24         C  0.00047080  0.18837295  0.31200483    -0.10900
H25         H  0.02114701  0.14633224  0.35787044     0.08800
H26         H  0.07194400  0.23940834  0.33293066     0.06400
H27         H  0.48109216  0.18580317  0.29828263     0.06200
C28         C  0.38872196  0.05336469  0.32845731     0.03200
C29         C  0.38670637  0.02863495  0.34493891    -0.12900
C30         C  0.35994764  0.50218832  0.34711258     0.00700
C31         C  0.33452548  0.50070774  0.33136905    -0.11400
C32         C  0.33604646  0.02588023  0.31502554     0.03200
C33         C  0.36359360  0.05203830  0.31394568    -0.10900
H34         H  0.40652197  0.03059083  0.35677289     0.08800
H35         H  0.31335473  0.48038919  0.33262711     0.06400
H36         H  0.36592829  0.07154041  0.30101105     0.06200
O37         O  0.31476870  0.05234352  0.21447697    -0.74300
O38         O  0.26096667  0.04978886  0.28552247    -0.74300
O39         O  0.31373931  0.04991414  0.28508657    -0.74400
O40         O  0.26186878  0.05217197  0.21488261    -0.74500
O41         O  0.23764438  0.00296477  0.21458900    -0.74400
O42         O  0.28967580  0.50063388  0.28414689    -0.74400
O43         O  0.23625387  0.00058140  0.28511640    -0.74300
O44         O  0.28992582  0.00313666  0.21422081    -0.74400
Ni45       Ni  0.28871094  0.05281630  0.25018242     1.25400
Ni46       Ni  0.26241111  0.00013239  0.24958671     1.25400
C47         C  0.31183287  0.02775646  0.20379138     0.87900
C48         C  0.23887768  0.02509662  0.29555689     0.87800
C49         C  0.31129255  0.02526883  0.29486457     0.87800
C50         C  0.24021865  0.02750672  0.20428055     0.88000
O51         O  0.50069080  0.28934812  0.21141391    -0.74300
O52         O  0.00271167  0.23763743  0.28177445    -0.74300
O53         O  0.00226369  0.28984053  0.28207993    -0.74400
O54         O  0.50084420  0.23675159  0.21131916    -0.74500
O55         O  0.05021662  0.26132943  0.21192995    -0.74400
O56         O  0.05160616  0.31502682  0.28233985    -0.74400
O57         O  0.05206454  0.26239746  0.28247102    -0.74300
O58         O  0.05003788  0.31362787  0.21158706    -0.74400
Ni59       Ni  0.49989937  0.26254948  0.24673967     1.25400
Ni60       Ni  0.05273434  0.28901027  0.24698124     1.25400
C61         C  0.02541750  0.31103675  0.20107186     0.87900
C62         C  0.02740635  0.24033323  0.29227452     0.87800
C63         C  0.02678203  0.31188116  0.29271946     0.87800
C64         C  0.02552457  0.23932716  0.20154664     0.88000
C65         C  0.32926930  0.02541204  0.50076768     0.03200
C66         C  0.33099620  0.00224038  0.48506538    -0.12900
C67         C  0.35810910  0.00269997  0.48281347     0.00700
C68         C  0.38365980  0.02676171  0.99810915    -0.11400
C69         C  0.38179459  0.05017194  0.01461977     0.03200
C70         C  0.35445494  0.04931358  0.01500987    -0.10900
H71         H  0.31166865  0.48509276  0.47118360     0.08800
H72         H  0.40466877  0.02724480  0.99723437     0.06400
H73         H  0.35224003  0.06675815  0.02755512     0.06200
C74         C  0.21788458  0.02238359  0.50346375     0.03200
C75         C  0.19294621  0.99923283  0.48786708    -0.12900
C76         C  0.16658424  0.00013209  0.48473519     0.00700
C77         C  0.16513756  0.02425905  0.49982351    -0.11400
C78         C  0.19041451  0.04750544  0.01662190     0.03200
C79         C  0.21672788  0.04635464  0.01747499    -0.10900
H80         H  0.19605206  0.48295505  0.47353648     0.08800
H81         H  0.14480728  0.02506837  0.49825997     0.06400
H82         H  0.23653868  0.06387776  0.02980212     0.06200
C83         C  0.03043289  0.22399904  0.50851886     0.03200
C84         C  0.00611863  0.19874811  0.02188838    -0.12900
C85         C  0.00412726  0.17102415  0.01902206     0.00700
C86         C  0.02692513  0.16893051  0.00122082    -0.11400
C87         C  0.05141171  0.19455434  0.48686734     0.03200
C88         C  0.05315596  0.22200526  0.49182369    -0.10900
H89         H  0.48885677  0.20101433  0.03491997     0.08800
H90         H  0.02541350  0.14760393  0.99818466     0.06400
H91         H  0.07137619  0.24194971  0.48081676     0.06200
C92         C  0.02884498  0.33305139  0.50652620     0.03200
C93         C  0.05125258  0.35738581  0.48917167    -0.12900
C94         C  0.04975400  0.38324217  0.48462399     0.00700
C95         C  0.02570140  0.38486096  0.49979280    -0.11400
C96         C  0.00313889  0.36028516  0.01814040     0.03200
C97         C  0.00493058  0.33441721  0.02066523    -0.10900
H98         H  0.06921497  0.35536333  0.47775385     0.08800
H99         H  0.02442427  0.40482519  0.49714388     0.06400
H100        H  0.48795611  0.31518962  0.03433147     0.06200
C101        C  0.05285938  0.18954870  0.16791907     0.03200
C102        C  0.02744258  0.16629012  0.15310866    -0.12900
C103        C  0.50126557  0.16757426  0.15023226     0.00700
C104        C  0.50041352  0.19205942  0.16495880    -0.11400
C105        C  0.02598526  0.21527793  0.18121303     0.03200
C106        C  0.05222900  0.21397795  0.18152230    -0.10900
H107        H  0.02881244  0.14783218  0.14219417     0.08800
H108        H  0.48018986  0.19308784  0.16369727     0.06400
H109        H  0.07223537  0.23156357  0.19343291     0.06200
C110        C  0.16317899  0.18995787  0.16813143     0.03200
C111        C  0.16526853  0.16679779  0.15324287    -0.12900
C112        C  0.19261266  0.16784955  0.15063393     0.00700
C113        C  0.21801304  0.19208552  0.16596078    -0.11400
C114        C  0.21569153  0.21523335  0.18257615     0.03200
C115        C  0.18820046  0.21411292  0.18238993    -0.10900
H116        H  0.14536091  0.14851048  0.14207482     0.08800
H117        H  0.23918381  0.19291849  0.16498646     0.06400
H118        H  0.18574114  0.23157156  0.19446746     0.06200
O119        O  0.16828204  0.07049972  0.11726502    -0.74300
O120        O  0.16602890  0.12255308  0.04774547    -0.74300
O121        O  0.16548768  0.06936931  0.04681842    -0.74400
O122        O  0.16876796  0.12284728  0.11822063    -0.74500
O123        O  0.21811121  0.14777627  0.11766034    -0.74400
O124        O  0.21485165  0.09382383  0.04656328    -0.74400
O125        O  0.21538238  0.14659205  0.04714544    -0.74300
O126        O  0.21764464  0.09487540  0.11709822    -0.74400
Ni127      Ni  0.16540912  0.09547287  0.08256748     1.25400
Ni128      Ni  0.21824922  0.12161803  0.08190970     1.25400
C129        C  0.19298691  0.07318522  0.12757400     0.87900
C130        C  0.19071669  0.14445464  0.03767269     0.87800
C131        C  0.19000783  0.07175434  0.03667171     0.87800
C132        C  0.19350484  0.14477834  0.12855518     0.88000
C133        C  0.35855562  0.38793122  0.16682108     0.03200
C134        C  0.38226870  0.38651967  0.15208526    -0.12900
C135        C  0.38247793  0.35979063  0.15072107     0.00700
C136        C  0.35889662  0.33439586  0.16671197    -0.11400
C137        C  0.33517753  0.33596628  0.18290271     0.03200
C138        C  0.33506648  0.36278665  0.18174716    -0.10900
H139        H  0.40002177  0.40633894  0.14023551     0.08800
H140        H  0.35899949  0.31372160  0.16654655     0.06400
H141        H  0.31714524  0.36465421  0.19355821     0.06200
C142        C  0.35783673  0.49763241  0.16438900     0.03200
C143        C  0.38181124  0.02326388  0.15019373    -0.11100
C144        C  0.38165973  0.05000819  0.14845671     0.00700
C145        C  0.35828127  0.05197610  0.16502405    -0.11400
C146        C  0.33504542  0.02688469  0.18191931     0.03200
C147        C  0.33454304  0.49941434  0.17968971    -0.10900
H148        H  0.39950443  0.02111083  0.13819303     0.08800
H149        H  0.35818271  0.07265046  0.16480605     0.06400
H150        H  0.31698199  0.47979028  0.19209965     0.06200
O151        O  0.42807004  0.38366128  0.11900608    -0.74300
O152        O  0.48162022  0.38575227  0.04801667    -0.74300
O153        O  0.42866385  0.38603564  0.04844338    -0.74400
O154        O  0.48052607  0.38340163  0.11841522    -0.74500
O155        O  0.45582135  0.33418713  0.11803941    -0.74400
O156        O  0.40415005  0.33682960  0.04802397    -0.74400
O157        O  0.45661965  0.33653369  0.04772009    -0.74300
O158        O  0.40302476  0.33445740  0.11854871    -0.74400
Ni159      Ni  0.45558382  0.38645992  0.08357513     1.25400
Ni160      Ni  0.42900615  0.33377923  0.08293330     1.25400
C161        C  0.40596905  0.35905564  0.12919371     0.87900
C162        C  0.47894075  0.36112153  0.03793868     0.87800
C163        C  0.40663543  0.36147121  0.03821044     0.87800
C164        C  0.47794296  0.35870124  0.12817151     0.88000
O165        O  0.45706035  0.14826413  0.04747132    -0.74300
O166        O  0.40231468  0.09593089  0.11665150    -0.74300
O167        O  0.45553774  0.14820861  0.11788510    -0.74400
O168        O  0.40401703  0.09595840  0.04598448    -0.74500
O169        O  0.42825714  0.07091862  0.04532037    -0.74400
O170        O  0.47937267  0.12277669  0.11734409    -0.74400
O171        O  0.42669738  0.07104686  0.11584910    -0.74300
O172        O  0.48153133  0.12344678  0.04698150    -0.74400
Ni173      Ni  0.42884434  0.12296753  0.08183317     1.25400
Ni174      Ni  0.45478580  0.09615091  0.08138499     1.25400
C175        C  0.47936421  0.14583487  0.03774729     0.87900
C176        C  0.40492670  0.07396169  0.12663072     0.87800
C177        C  0.47702169  0.14478358  0.12821737     0.87800
C178        C  0.40642275  0.07387339  0.03538697     0.88000
C179        C  0.21963371  0.22212483  0.00551860     0.03200
C180        C  0.21799002  0.19685242  0.01970074    -0.12900
C181        C  0.19158468  0.16950122  0.01808221     0.00700
C182        C  0.16667169  0.16783439  0.00073583    -0.11400
C183        C  0.16850504  0.19350285  0.48555103     0.03200
C184        C  0.19505136  0.22054900  0.48897945    -0.10900
H185        H  0.23745365  0.19888736  0.03264024     0.08800
H186        H  0.14624818  0.14680777  0.99880877     0.06400
H187        H  0.19732116  0.24048573  0.47737156     0.06200
C188        C  0.32932864  0.33249198  0.00374064     0.03200
C189        C  0.35451178  0.33427919  0.01866246    -0.12900
C190        C  0.38185475  0.36067795  0.01783061     0.00700
C191        C  0.38366955  0.38554699  0.00049532    -0.11400
C192        C  0.35811312  0.38365195  0.48452202     0.03200
C193        C  0.33101940  0.35697333  0.48700027    -0.10900
H194        H  0.35233423  0.31490375  0.03176604     0.08800
H195        H  0.40470793  0.40601071  0.99926241     0.06400
H196        H  0.31116584  0.35465772  0.47483863     0.06200
C197        C  0.49618619  0.35641020  0.33481987     0.03200
C198        C  0.99827487  0.33393043  0.31773193    -0.12900
C199        C  0.02558740  0.33473780  0.31503834     0.00700
C200        C  0.05095284  0.35845971  0.33112892    -0.11400
C201        C  0.04867282  0.38114864  0.34890990     0.03200
C202        C  0.02114321  0.37984896  0.34997840    -0.10900
H203        H  0.47851567  0.31632543  0.30542779     0.08800
H204        H  0.07211685  0.35930344  0.32975973     0.06400
H205        H  0.01864893  0.39679720  0.36341633     0.06200
C206        C  0.38632944  0.35693493  0.33654920     0.03200
C207        C  0.38496091  0.38049057  0.35163617    -0.12900
C208        C  0.35866327  0.38172003  0.35072991     0.00700
C209        C  0.33350057  0.35878913  0.33333764    -0.11400
C210        C  0.33496907  0.33491784  0.31752365     0.03200
C211        C  0.36154698  0.33426434  0.31994324    -0.10900
H212        H  0.40456358  0.39764104  0.36471790     0.08800
H213        H  0.31314627  0.35956633  0.33204161     0.06400
H214        H  0.36360961  0.31661660  0.30773396     0.06200
O215        O  0.33456272  0.40490618  0.45107714    -0.74300
O216        O  0.33383576  0.45647312  0.37941589    -0.74300
O217        O  0.33331409  0.40337960  0.38045383    -0.74400
O218        O  0.33489074  0.45751269  0.45003457    -0.74500
O219        O  0.38424042  0.48223517  0.45079360    -0.74400
O220        O  0.38266666  0.42775609  0.38152730    -0.74400
O221        O  0.38317083  0.48049529  0.38019084    -0.74300
O222        O  0.38390070  0.42927363  0.45213553    -0.74400
Ni223      Ni  0.33241307  0.42971843  0.41530832     1.25400
Ni224      Ni  0.38523403  0.45579839  0.41607552     1.25400
C225        C  0.35907959  0.40755596  0.46219996     0.87900
C226        C  0.35872110  0.47808050  0.36926309     0.87800
C227        C  0.35800469  0.40575647  0.37104726     0.87800
C228        C  0.35948019  0.47956819  0.46050847     0.88000
C229        C  0.19054466  0.05323820  0.33256805     0.03200
C230        C  0.16760142  0.02824575  0.34826029    -0.12900
C231        C  0.16861405  0.50196235  0.34922821     0.00700
C232        C  0.19249954  0.50058953  0.33317944    -0.11400
C233        C  0.21502196  0.02558890  0.31663875     0.03200
C234        C  0.21412924  0.05200287  0.31716505    -0.10900
H235        H  0.14986335  0.03013609  0.36057416     0.08800
H236        H  0.19277168  0.48000128  0.33311261     0.06400
H237        H  0.23139853  0.07173389  0.30460505     0.06200
C238        C  0.19088666  0.16330787  0.33158221     0.03200
C239        C  0.21421066  0.18801174  0.31578825    -0.12900
C240        C  0.21506371  0.21531106  0.31566981     0.00700
C241        C  0.19204951  0.21754846  0.33284718    -0.11400
C242        C  0.16846488  0.19247960  0.34938704     0.03200
C243        C  0.16813970  0.16546687  0.34791511    -0.10900
H244        H  0.23136151  0.18552631  0.30282203     0.08800
H245        H  0.19251497  0.23850000  0.33338170     0.06400
H246        H  0.15061935  0.14595684  0.36055413     0.06200
O247        O  0.12285759  0.16818615  0.45272132    -0.74300
O248        O  0.07097118  0.16979337  0.38200828    -0.74300
O249        O  0.12328584  0.16938535  0.38199542    -0.74400
O250        O  0.07037917  0.16865820  0.45290050    -0.74500
O251        O  0.09550996  0.21784417  0.45222356    -0.74400
O252        O  0.14842213  0.21857023  0.38118439    -0.74400
O253        O  0.09561252  0.21896543  0.38120851    -0.74300
O254        O  0.14770663  0.21737416  0.45199403    -0.74400
Ni255      Ni  0.09597790  0.16729166  0.41728851     1.25400
Ni256      Ni  0.12267820  0.21993847  0.41670859     1.25400
C257        C  0.14476952  0.19280789  0.46298781     0.87900
C258        C  0.07375141  0.19426137  0.37092883     0.87800
C259        C  0.14534760  0.19375722  0.37118749     0.87800
C260        C  0.07375164  0.19344368  0.46346750     0.88000
O261        O  0.09521108  0.40246826  0.37977071    -0.74300
O262        O  0.14611987  0.45602666  0.45083236    -0.74300
O263        O  0.09406450  0.40371664  0.45045782    -0.74400
O264        O  0.14793257  0.45559344  0.38023207    -0.74500
O265        O  0.12264662  0.47957305  0.38015787    -0.74400
O266        O  0.06903039  0.42794928  0.45060877    -0.74400
O267        O  0.12153449  0.48071820  0.45075437    -0.74300
O268        O  0.07037697  0.42691800  0.37991902    -0.74400
Ni269      Ni  0.12170612  0.42858211  0.41537044     1.25400
Ni270      Ni  0.09499828  0.45462718  0.41517602     1.25400
C271        C  0.07315857  0.40498832  0.36964818     0.87900
C272        C  0.14325504  0.47782961  0.46138068     0.87800
C273        C  0.07224088  0.40651691  0.46134188     0.87800
C274        C  0.14498324  0.47734189  0.37007901     0.88000
O275        O  0.23604898  0.26167465  0.28484480    -0.74300
O276        O  0.28947800  0.31372362  0.21447113    -0.74300
O277        O  0.23713079  0.26092853  0.21422063    -0.74400
O278        O  0.28894079  0.31470044  0.28515020    -0.74500
O279        O  0.31334849  0.28985056  0.28487826    -0.74400
O280        O  0.26217009  0.23669527  0.21354908    -0.74400
O281        O  0.31481296  0.28979568  0.21423271    -0.74300
O282        O  0.26087373  0.23722977  0.28412001    -0.74400
Ni283      Ni  0.26202177  0.28862325  0.24957453     1.25400
Ni284      Ni  0.28869129  0.26255783  0.24928638     1.25400
C285        C  0.23877100  0.23972333  0.29463841     0.87900
C286        C  0.31173685  0.31148076  0.20410573     0.87800
C287        C  0.24002804  0.23912819  0.20359039     0.87800
C288        C  0.31076460  0.31180560  0.29548428     0.88000
C289        C  0.20054367  0.12676526  0.36182595    -0.01700
C290        C  0.19057201  0.13501075  0.33180670     0.07900
C291        C  0.17999830  0.11615737  0.30227937    -0.01900
C292        C  0.17988742  0.08923270  0.30255476    -0.01900
C293        C  0.19002570  0.08109820  0.33251272     0.08100
C294        C  0.19997287  0.09963935  0.36232366    -0.02100
Br295      Br  0.21281736  0.08781806  0.40375987    -0.00600
Br296      Br  0.21547179  0.15291361  0.40196886    -0.00700
Br297      Br  0.16549391  0.06323199  0.26220978    -0.00600
Br298      Br  0.16535010  0.12709403  0.26174811    -0.00600
C299        C  0.44957145  0.34594490  0.36533085    -0.01700
C300        C  0.46795963  0.35630424  0.33545992     0.07900
C301        C  0.45998427  0.36756568  0.30647050    -0.01900
C302        C  0.43347049  0.36832622  0.30724922    -0.01900
C303        C  0.41445360  0.35679597  0.33644132     0.08100
C304        C  0.42238292  0.34545825  0.36542093    -0.02100
Br305      Br  0.39588217  0.32902140  0.40491437    -0.00600
Br306      Br  0.46201937  0.33319363  0.40630416    -0.00700
Br307      Br  0.42343386  0.38576954  0.26876306    -0.00600
Br308      Br  0.48579643  0.38256852  0.26609852    -0.00600
C309        C  0.29242781  0.28566802  0.47474319    -0.01700
C310        C  0.30123424  0.30424317  0.00452263     0.07900
C311        C  0.28383531  0.29539595  0.03530511    -0.01900
C312        C  0.25716063  0.26821882  0.03592789    -0.01900
C313        C  0.24795677  0.25012070  0.00569935     0.08100
C314        C  0.26572291  0.25866624  0.47527635    -0.02100
Br315      Br  0.25368523  0.23301887  0.43457703    -0.00600
Br316      Br  0.31739803  0.29682955  0.43359860    -0.00700
Br317      Br  0.23317571  0.25573769  0.07796560    -0.00600
Br318      Br  0.29657514  0.32055412  0.07643368    -0.00600
C319        C  0.36190413  0.43166570  0.19785068    -0.01700
C320        C  0.35826474  0.41597108  0.16626394     0.07900
C321        C  0.35459102  0.42712802  0.13405302    -0.01900
C322        C  0.35412634  0.45374315  0.13350801    -0.01900
C323        C  0.35796840  0.46953179  0.16504717     0.08100
C324        C  0.36187460  0.45850948  0.19722918    -0.02100
Br325      Br  0.36818831  0.98086735  0.24180554    -0.00600
Br326      Br  0.36800391  0.41694643  0.24182100    -0.00700
Br327      Br  0.34706491  0.46798280  0.08972738    -0.00600
Br328      Br  0.34967466  0.40574289  0.09066105    -0.00600
C329        C  0.09228734  0.18523908  0.19989640    -0.01700
C330        C  0.08066398  0.18879468  0.16797955     0.07900
C331        C  0.09565572  0.19188512  0.13599691    -0.01900
C332        C  0.12257704  0.19192077  0.13600979    -0.01900
C333        C  0.13455580  0.18906759  0.16805499     0.08100
C334        C  0.11920663  0.18523675  0.19990324    -0.02100
Br335      Br  0.13453253  0.17892183  0.24330334    -0.00600
Br336      Br  0.07108908  0.17983480  0.24348817    -0.00700
Br337      Br  0.14331801  0.19654978  0.09215434    -0.00600
Br338      Br  0.07990729  0.19721521  0.09228053    -0.00600
C339        C  0.52380613  0.26177085  0.47699141    -0.01700
C340        C  0.03049948  0.25214818  0.50846819     0.07900
C341        C  0.03658146  0.26898142  0.03956797    -0.01900
C342        C  0.03603898  0.29560223  0.03909631    -0.01900
C343        C  0.02941332  0.30522096  0.50752417     0.08100
C344        C  0.52326083  0.28828749  0.47651676    -0.02100
Br345      Br  0.51324570  0.30099157  0.43351294    -0.00600
Br346      Br  0.51454289  0.23814401  0.43464315    -0.00700
Br347      Br  0.04488598  0.31914731  0.08136808    -0.00600
Br348      Br  0.04611942  0.25577832  0.08246726    -0.00600
C349        C  0.28410719  0.51679346  0.03018208    -0.01700
C350        C  0.30083820  0.02480563  0.50176367     0.07900
C351        C  0.29048730  0.03200619  0.47127255    -0.01900
C352        C  0.26281011  0.03033497  0.47163132    -0.01900
C353        C  0.24610037  0.02258891  0.50289904     0.08100
C354        C  0.25704015  0.51647181  0.03088771    -0.02100
Br355      Br  0.23355915  0.50537105  0.07332622    -0.00600
Br356      Br  0.29738502  0.50487289  0.07116681    -0.00700
Br357      Br  0.24790531  0.03898288  0.42942091    -0.00600
Br358      Br  0.31479884  0.04528761  0.42950864    -0.00600
C359        C  0.46105063  0.11786998  0.29682567    -0.01700
C360        C  0.47067499  0.13536207  0.32756651     0.07900
C361        C  0.45324320  0.12616160  0.35828821    -0.01900
C362        C  0.42657821  0.09907012  0.35861950    -0.01900
C363        C  0.41703674  0.08145294  0.32801192     0.08100
C364        C  0.43398561  0.09105531  0.29691297    -0.02100
Br365      Br  0.42003119  0.06754058  0.25450828    -0.00600
Br366      Br  0.98515722  0.13045023  0.25488229    -0.00700
Br367      Br  0.40255371  0.08648852  0.40066275    -0.00600
Br368      Br  0.46540118  0.15125866  0.39951563    -0.00600
C369        C  0.09333718  0.43072204  0.19508924    -0.01700
C370        C  0.08328580  0.41498436  0.16316828     0.07900
C371        C  0.09984841  0.42620269  0.13204835    -0.01900
C372        C  0.12649296  0.45330466  0.13282862    -0.01900
C373        C  0.13642075  0.46915652  0.16469543     0.08100
C374        C  0.12000421  0.45778224  0.19589895    -0.02100
Br375      Br  0.13584524  0.97794586  0.24110945    -0.00600
Br376      Br  0.07009947  0.41559096  0.23749000    -0.00700
Br377      Br  0.14988144  0.46827491  0.09052325    -0.00600
Br378      Br  0.08631148  0.40420928  0.08854376    -0.00600
C379        C  0.05516729  0.38682403  0.66244937     0.03200
C380        C  0.02998021  0.38563661  0.64833976    -0.12900
C381        C  0.50265566  0.35918755  0.64827944     0.00700
C382        C  0.50078165  0.33381175  0.66428583    -0.11400
C383        C  0.02632982  0.33517721  0.67943456     0.03200
C384        C  0.05348487  0.36173247  0.67728487    -0.10900
H385        H  0.03212651  0.40546897  0.63656099     0.08800
H386        H  0.47971427  0.31335380  0.66511253     0.06400
H387        H  0.07339973  0.36360321  0.68871426     0.06200
C388        C  0.16422155  0.49761582  0.66542753     0.03200
C389        C  0.18930690  0.99943094  0.68115959    -0.12900
C390        C  0.21603349  0.02642317  0.68253719     0.00700
C391        C  0.21766238  0.05146299  0.66597367    -0.11400
C392        C  0.19228046  0.04922315  0.64925313     0.03200
C393        C  0.16554091  0.02218349  0.65039555    -0.10900
H394        H  0.18717857  0.47998701  0.69341268     0.08800
H395        H  0.23834400  0.07233774  0.66606967     0.06400
H396        H  0.14572004  0.01977656  0.63802032     0.06200
C397        C  0.99884829  0.16361341  0.82773438     0.03200
C398        C  0.02337667  0.16590563  0.84525738    -0.12900
C399        C  0.04987295  0.19312058  0.84807262     0.00700
C400        C  0.05160416  0.21827408  0.83146784    -0.11400
C401        C  0.02671691  0.21588484  0.81312597     0.03200
C402        C  0.00047077  0.18837414  0.81200732    -0.10900
H403        H  0.02114683  0.14633353  0.85787334     0.08800
H404        H  0.07194464  0.23940921  0.83293123     0.06400
H405        H  0.48109260  0.18580409  0.79828457     0.06200
C406        C  0.38872203  0.05336602  0.82845877     0.03200
C407        C  0.38670654  0.02863626  0.84494026    -0.12900
C408        C  0.35994779  0.50218838  0.84711304     0.00700
C409        C  0.33452571  0.50070764  0.83136902    -0.11400
C410        C  0.33604684  0.02588090  0.81502525     0.03200
C411        C  0.36359376  0.05203928  0.81394632    -0.10900
H412        H  0.40652201  0.03059233  0.85677477     0.08800
H413        H  0.31335503  0.48038905  0.83262694     0.06400
H414        H  0.36592839  0.07154144  0.80101170     0.06200
O415        O  0.31476810  0.05234290  0.71447561    -0.74300
O416        O  0.26096702  0.04978916  0.78552191    -0.74300
O417        O  0.31373968  0.04991442  0.78508533    -0.74400
O418        O  0.26186822  0.05217146  0.71488208    -0.74500
O419        O  0.23764367  0.00296425  0.71458927    -0.74400
O420        O  0.28967589  0.50063357  0.78414676    -0.74400
O421        O  0.23625427  0.00058170  0.78511666    -0.74300
O422        O  0.28992515  0.00313604  0.71422015    -0.74400
Ni423      Ni  0.28871085  0.05281616  0.75018146     1.25400
Ni424      Ni  0.26241098  0.00013226  0.74958657     1.25400
C425        C  0.31183206  0.02775571  0.70379014     0.87900
C426        C  0.23887815  0.02509703  0.79555683     0.87800
C427        C  0.31129298  0.02526923  0.79486375     0.87800
C428        C  0.24021783  0.02750613  0.70428067     0.88000
O429        O  0.50069062  0.28934793  0.71141393    -0.74300
O430        O  0.00271192  0.23763806  0.78177527    -0.74300
O431        O  0.00226407  0.28984121  0.78207983    -0.74400
O432        O  0.50084420  0.23675144  0.71131938    -0.74500
O433        O  0.05021637  0.26132908  0.71193017    -0.74400
O434        O  0.05160653  0.31502733  0.78233941    -0.74400
O435        O  0.05206479  0.26239791  0.78247134    -0.74300
O436        O  0.05003772  0.31362759  0.71158661    -0.74400
Ni437      Ni  0.49989954  0.26254953  0.74673982     1.25400
Ni438      Ni  0.05273440  0.28901033  0.74698112     1.25400
C439        C  0.02541730  0.31103642  0.70107151     0.87900
C440        C  0.02740661  0.24033392  0.79227537     0.87800
C441        C  0.02678250  0.31188187  0.79271911     0.87800
C442        C  0.02552426  0.23932674  0.70154712     0.88000
C443        C  0.32926958  0.02541217  0.00076860     0.03200
C444        C  0.33099653  0.00224066  0.98506596    -0.12900
C445        C  0.35810950  0.00270040  0.98281374     0.00700
C446        C  0.38365943  0.02676130  0.49810885    -0.11400
C447        C  0.38179428  0.05017169  0.51461917     0.03200
C448        C  0.35445468  0.04931347  0.51500897    -0.10900
H449        H  0.31166832  0.48509183  0.97118632     0.08800
H450        H  0.40466827  0.02724428  0.49723431     0.06400
H451        H  0.35223982  0.06675813  0.52755400     0.06200
C452        C  0.21788474  0.02238328  0.00346480     0.03200
C453        C  0.19294636  0.99923265  0.98786802    -0.12900
C454        C  0.16658456  0.00013218  0.98473583     0.00700
C455        C  0.16513804  0.02425927  0.99982399    -0.11400
C456        C  0.19041401  0.04750536  0.51662130     0.03200
C457        C  0.21672754  0.04635482  0.51747405    -0.10900
H458        H  0.19605140  0.48295336  0.97354057     0.08800
H459        H  0.14480792  0.02506880  0.99826021     0.06400
H460        H  0.23653837  0.06387806  0.52980113     0.06200
C461        C  0.03043221  0.22399923  0.00851880     0.03200
C462        C  0.00611933  0.19874807  0.52188882    -0.12900
C463        C  0.00412762  0.17102396  0.51902234     0.00700
C464        C  0.02692517  0.16893004  0.50122065    -0.11400
C465        C  0.05141167  0.19455497  0.98686777     0.03200
C466        C  0.05315555  0.22200573  0.99182390    -0.10900
H467        H  0.48885716  0.20101433  0.53491981     0.08800
H468        H  0.02541324  0.14760331  0.49818429     0.06400
H469        H  0.07137583  0.24195032  0.98081719     0.06200
C470        C  0.02884570  0.33305225  0.00652832     0.03200
C471        C  0.05125328  0.35738651  0.98917358    -0.12900
C472        C  0.04975457  0.38324275  0.98462533     0.00700
C473        C  0.02570200  0.38486168  0.99979400    -0.11400
C474        C  0.00313819  0.36028424  0.51813888     0.03200
C475        C  0.00492981  0.33441624  0.52066320    -0.10900
H476        H  0.06921558  0.35536392  0.97775585     0.08800
H477        H  0.02442479  0.40482584  0.99714463     0.06400
H478        H  0.48795521  0.31518852  0.53432918     0.06200
C479        C  0.05285909  0.18954833  0.66791913     0.03200
C480        C  0.02744217  0.16628958  0.65310909    -0.12900
C481        C  0.50126546  0.16757421  0.65023170     0.00700
C482        C  0.50041337  0.19205927  0.66495854    -0.11400
C483        C  0.02598484  0.21527743  0.68121341     0.03200
C484        C  0.05222869  0.21397764  0.68152223    -0.10900
H485        H  0.02881196  0.14783154  0.64219478     0.08800
H486        H  0.48018956  0.19308756  0.66369732     0.06400
H487        H  0.07223509  0.23156337  0.69343250     0.06200
C488        C  0.16317901  0.18995763  0.66813227     0.03200
C489        C  0.16526839  0.16679732  0.65324406    -0.12900
C490        C  0.19261247  0.16784900  0.65063483     0.00700
C491        C  0.21801295  0.19208495  0.66596165    -0.11400
C492        C  0.21569162  0.21523292  0.68257699     0.03200
C493        C  0.18820063  0.21411271  0.68239055    -0.10900
H494        H  0.14536068  0.14850993  0.64207629     0.08800
H495        H  0.23918372  0.19291783  0.66498726     0.06400
H496        H  0.18574150  0.23157154  0.69446778     0.06200
O497        O  0.16828139  0.07049917  0.61726484    -0.74300
O498        O  0.16602841  0.12255287  0.54774561    -0.74300
O499        O  0.16548709  0.06936904  0.54681823    -0.74400
O500        O  0.16876755  0.12284693  0.61822091    -0.74500
O501        O  0.21811079  0.14777569  0.61766073    -0.74400
O502        O  0.21485105  0.09382362  0.54656300    -0.74400
O503        O  0.21538188  0.14659187  0.54714573    -0.74300
O504        O  0.21764399  0.09487468  0.61709794    -0.74400
Ni505      Ni  0.16540858  0.09547254  0.58256750     1.25400
Ni506      Ni  0.21824868  0.12161760  0.58190973     1.25400
C507        C  0.19298623  0.07318449  0.62757365     0.87900
C508        C  0.19071621  0.14445439  0.53767279     0.87800
C509        C  0.19000724  0.07175414  0.53667137     0.87800
C510        C  0.19350448  0.14477783  0.62855569     0.88000
C511        C  0.35855566  0.38793065  0.66682094     0.03200
C512        C  0.38226853  0.38651896  0.65208468    -0.12900
C513        C  0.38247773  0.35978990  0.65072049     0.00700
C514        C  0.35889661  0.33439523  0.66671184    -0.11400
C515        C  0.33517776  0.33596579  0.68290304     0.03200
C516        C  0.33506677  0.36278621  0.68174755    -0.10900
H517        H  0.40002141  0.40633813  0.64023451     0.08800
H518        H  0.35899943  0.31372093  0.66654636     0.06400
H519        H  0.31714565  0.36465387  0.69355894     0.06200
C520        C  0.35783499  0.49763097  0.66438704     0.03200
C521        C  0.38180958  0.02326258  0.65019101    -0.11100
C522        C  0.38165862  0.05000723  0.64845503     0.00700
C523        C  0.35828035  0.05197523  0.66502269    -0.11400
C524        C  0.33504418  0.02688371  0.68191739     0.03200
C525        C  0.33454145  0.49941298  0.67968811    -0.10900
H526        H  0.39950267  0.02110950  0.63819016     0.08800
H527        H  0.35818225  0.07264985  0.66480552     0.06400
H528        H  0.31698044  0.47978892  0.69209822     0.06200
O529        O  0.42806950  0.38366040  0.61900486    -0.74300
O530        O  0.48161945  0.38575123  0.54801527    -0.74300
O531        O  0.42866319  0.38603469  0.54844213    -0.74400
O532        O  0.48052543  0.38340070  0.61841385    -0.74500
O533        O  0.45582080  0.33418620  0.61803812    -0.74400
O534        O  0.40414927  0.33682865  0.54802285    -0.74400
O535        O  0.45661888  0.33653266  0.54771872    -0.74300
O536        O  0.40302423  0.33445652  0.61854768    -0.74400
Ni537      Ni  0.45558317  0.38645896  0.58357381     1.25400
Ni538      Ni  0.42900548  0.33377827  0.58293209     1.25400
C539        C  0.40596860  0.35905479  0.62919271     0.87900
C540        C  0.47893993  0.36112049  0.53793721     0.87800
C541        C  0.40663473  0.36147028  0.53820922     0.87800
C542        C  0.47794236  0.35870034  0.62817025     0.88000
O543        O  0.45706025  0.14826398  0.54747103    -0.74300
O544        O  0.40231420  0.09593046  0.61665082    -0.74300
O545        O  0.45553741  0.14820831  0.61788479    -0.74400
O546        O  0.40401682  0.09595822  0.54598387    -0.74500
O547        O  0.42825681  0.07091833  0.54531991    -0.74400
O548        O  0.47937233  0.12277638  0.61734382    -0.74400
O549        O  0.42669689  0.07104642  0.61584857    -0.74300
O550        O  0.48153107  0.12344647  0.54698123    -0.74400
Ni551      Ni  0.42884407  0.12296727  0.58183271     1.25400
Ni552      Ni  0.45478545  0.09615058  0.58138463     1.25400
C553        C  0.47936407  0.14583463  0.53774703     0.87900
C554        C  0.40492605  0.07396111  0.62662985     0.87800
C555        C  0.47702142  0.14478334  0.62821702     0.87800
C556        C  0.40642246  0.07387315  0.53538642     0.88000
C557        C  0.21963332  0.22212417  0.50551696     0.03200
C558        C  0.21798959  0.19685195  0.51969978    -0.12900
C559        C  0.19158420  0.16950077  0.51808179     0.00700
C560        C  0.16667118  0.16783376  0.50073522    -0.11400
C561        C  0.16850550  0.19350365  0.98555226     0.03200
C562        C  0.19505176  0.22054981  0.98898120    -0.10900
H563        H  0.23745327  0.19888703  0.53263942     0.08800
H564        H  0.14624765  0.14680720  0.49880853     0.06400
H565        H  0.19732154  0.24048670  0.97737369     0.06200
C566        C  0.32932816  0.33249135  0.50373881     0.03200
C567        C  0.35451121  0.33427838  0.51866066    -0.12900
C568        C  0.38185417  0.36067714  0.51782923     0.00700
C569        C  0.38366909  0.38554637  0.50049425    -0.11400
C570        C  0.35811348  0.38365240  0.98452312     0.03200
C571        C  0.33101978  0.35697378  0.98700174    -0.10900
H572        H  0.35233357  0.31490280  0.53176401     0.08800
H573        H  0.40470747  0.40601008  0.49926165     0.06400
H574        H  0.31116620  0.35465804  0.97484010     0.06200
C575        C  0.49618639  0.35640990  0.83482118     0.03200
C576        C  0.99827564  0.33393159  0.81773135    -0.12900
C577        C  0.02558806  0.33473871  0.81503790     0.00700
C578        C  0.05095351  0.35846039  0.83112883    -0.11400
C579        C  0.04867359  0.38114928  0.84891009     0.03200
C580        C  0.02114404  0.37984977  0.84997854    -0.10900
H581        H  0.47851599  0.31632548  0.80542847     0.08800
H582        H  0.07211746  0.35930393  0.82975977     0.06400
H583        H  0.01864980  0.39679789  0.86341672     0.06200
C584        C  0.38632952  0.35693453  0.83655117     0.03200
C585        C  0.38496097  0.38049024  0.85163789    -0.12900
C586        C  0.35866346  0.38171993  0.85073100     0.00700
C587        C  0.33350087  0.35878913  0.83333841    -0.11400
C588        C  0.33496939  0.33491774  0.81752465     0.03200
C589        C  0.36154717  0.33426405  0.81994486    -0.10900
H590        H  0.40456355  0.39764065  0.86471981     0.08800
H591        H  0.31314674  0.35956650  0.83204193     0.06400
H592        H  0.36360984  0.31661625  0.80773569     0.06200
O593        O  0.33456293  0.40490630  0.95107784    -0.74300
O594        O  0.33383588  0.45647321  0.87941653    -0.74300
O595        O  0.33331428  0.40337968  0.88045452    -0.74400
O596        O  0.33489082  0.45751271  0.95003527    -0.74500
O597        O  0.38424050  0.48223530  0.95079428    -0.74400
O598        O  0.38266684  0.42775620  0.88152802    -0.74400
O599        O  0.38317096  0.48049541  0.88019147    -0.74300
O600        O  0.38390091  0.42927388  0.95213626    -0.74400
Ni601      Ni  0.33241321  0.42971851  0.91530899     1.25400
Ni602      Ni  0.38523417  0.45579855  0.91607619     1.25400
C603        C  0.35907983  0.40755621  0.96220076     0.87900
C604        C  0.35872122  0.47808060  0.86926368     0.87800
C605        C  0.35800488  0.40575651  0.87104805     0.87800
C606        C  0.35948024  0.47956819  0.96050929     0.88000
C607        C  0.19054523  0.05323874  0.83256812     0.03200
C608        C  0.16760210  0.02824632  0.84826053    -0.12900
C609        C  0.16861548  0.50196295  0.84923052     0.00700
C610        C  0.19250058  0.50058991  0.83318104    -0.11400
C611        C  0.21502258  0.02558946  0.81663884     0.03200
C612        C  0.21412978  0.05200340  0.81716501    -0.10900
H613        H  0.14986406  0.03013667  0.86057450     0.08800
H614        H  0.19277215  0.48000134  0.83311318     0.06400
H615        H  0.23139903  0.07173442  0.80460485     0.06200
C616        C  0.19088690  0.16330828  0.83158361     0.03200
C617        C  0.21421094  0.18801204  0.81578956    -0.12900
C618        C  0.21506418  0.21531144  0.81567108     0.00700
C619        C  0.19205013  0.21754905  0.83284853    -0.11400
C620        C  0.16846544  0.19248032  0.84938848     0.03200
C621        C  0.16814010  0.16546749  0.84791663    -0.10900
H622        H  0.23136163  0.18552644  0.80282323     0.08800
H623        H  0.19251573  0.23850070  0.83338296     0.06400
H624        H  0.15061969  0.14595753  0.86055569     0.06200
O625        O  0.12285808  0.16818707  0.95272248    -0.74300
O626        O  0.07097166  0.16979435  0.88200944    -0.74300
O627        O  0.12328633  0.16938625  0.88199663    -0.74400
O628        O  0.07037963  0.16865908  0.95290154    -0.74500
O629        O  0.09551035  0.21784506  0.95222469    -0.74400
O630        O  0.14842275  0.21857112  0.88118571    -0.74400
O631        O  0.09561307  0.21896640  0.88120971    -0.74300
O632        O  0.14770713  0.21737508  0.95199536    -0.74400
Ni633      Ni  0.09597840  0.16729259  0.91728965     1.25400
Ni634      Ni  0.12267873  0.21993940  0.91670983     1.25400
C635        C  0.14477001  0.19280879  0.96298905     0.87900
C636        C  0.07375185  0.19426237  0.87093015     0.87800
C637        C  0.14534817  0.19375809  0.87118881     0.87800
C638        C  0.07375195  0.19344452  0.96346842     0.88000
O639        O  0.09521164  0.40246849  0.87977142    -0.74300
O640        O  0.14612011  0.45602638  0.95083371    -0.74300
O641        O  0.09406470  0.40371662  0.95045862    -0.74400
O642        O  0.14793333  0.45559357  0.88023343    -0.74500
O643        O  0.12264758  0.47957340  0.88015916    -0.74400
O644        O  0.06903082  0.42794949  0.95060951    -0.74400
O645        O  0.12153494  0.48071812  0.95075561    -0.74300
O646        O  0.07037776  0.42691845  0.87991968    -0.74400
Ni647      Ni  0.12170655  0.42858210  0.91537147     1.25400
Ni648      Ni  0.09499893  0.45462740  0.91517696     1.25400
C649        C  0.07315928  0.40498875  0.86964872     0.87900
C650        C  0.14325527  0.47782928  0.96138219     0.87800
C651        C  0.07224125  0.40651713  0.96134277     0.87800
C652        C  0.14498426  0.47734222  0.87008059     0.88000
O653        O  0.23604943  0.26167478  0.78484562    -0.74300
O654        O  0.28947834  0.31372329  0.71447164    -0.74300
O655        O  0.23713105  0.26092822  0.71422141    -0.74400
O656        O  0.28894128  0.31470045  0.78515075    -0.74500
O657        O  0.31334894  0.28985052  0.78487898    -0.74400
O658        O  0.26217025  0.23669486  0.71355005    -0.74400
O659        O  0.31481325  0.28979530  0.71423336    -0.74300
O660        O  0.26087408  0.23722980  0.78412105    -0.74400
Ni661      Ni  0.26202217  0.28862312  0.74957518     1.25400
Ni662      Ni  0.28869161  0.26255763  0.74928723     1.25400
C663        C  0.23877143  0.23972350  0.79463945     0.87900
C664        C  0.31173716  0.31148036  0.70410624     0.87800
C665        C  0.24002821  0.23912779  0.70359127     0.87800
C666        C  0.31076505  0.31180558  0.79548497     0.88000
C667        C  0.20054397  0.12676553  0.86182686    -0.01700
C668        C  0.19057204  0.13501106  0.83180790     0.07900
C669        C  0.17999821  0.11615780  0.80228047    -0.01900
C670        C  0.17988765  0.08923329  0.80255540    -0.01900
C671        C  0.19002623  0.08109874  0.83251306     0.08100
C672        C  0.19997337  0.09963970  0.86232418    -0.02100
Br673      Br  0.21281801  0.08781825  0.90376011    -0.00600
Br674      Br  0.21547222  0.15291371  0.90196990    -0.00700
Br675      Br  0.16549416  0.06323287  0.76221019    -0.00600
Br676      Br  0.16534938  0.12709444  0.76174975    -0.00600
C677        C  0.44957164  0.34594441  0.86533243    -0.01700
C678        C  0.46795981  0.35630393  0.83546150     0.07900
C679        C  0.45998449  0.36756571  0.80647238    -0.01900
C680        C  0.43347076  0.36832633  0.80725135    -0.01900
C681        C  0.41445376  0.35679568  0.83644330     0.08100
C682        C  0.42238308  0.34545773  0.86542268    -0.02100
Br683      Br  0.39588234  0.32902061  0.90491607    -0.00600
Br684      Br  0.46201963  0.33319302  0.90630555    -0.00700
Br685      Br  0.42343438  0.38577039  0.76876578    -0.00600
Br686      Br  0.48579663  0.38256891  0.76610044    -0.00600
C687        C  0.29242846  0.28566849  0.97474520    -0.01700
C688        C  0.30123368  0.30424263  0.50452068     0.07900
C689        C  0.28383473  0.29539546  0.53530314    -0.01900
C690        C  0.25716010  0.26821830  0.53592599    -0.01900
C691        C  0.24795630  0.25012010  0.50569752     0.08100
C692        C  0.26572353  0.25866674  0.97527831    -0.02100
Br693      Br  0.25368607  0.23301919  0.93457916    -0.00600
Br694      Br  0.31739883  0.29682988  0.93360077    -0.00700
Br695      Br  0.23317507  0.25573732  0.57796363    -0.00600
Br696      Br  0.29657442  0.32055375  0.57643159    -0.00600
C697        C  0.36190434  0.43166555  0.69784970    -0.01700
C698        C  0.35826454  0.41597039  0.66626331     0.07900
C699        C  0.35458995  0.42712656  0.63405227    -0.01900
C700        C  0.35412464  0.45374137  0.63350683    -0.01900
C701        C  0.35796699  0.46953051  0.66504564     0.08100
C702        C  0.36187426  0.45850906  0.69722774    -0.02100
Br703      Br  0.36818608  0.98086610  0.74180246    -0.00600
Br704      Br  0.36800547  0.41694744  0.74182011    -0.00700
Br705      Br  0.34706206  0.46797997  0.58972611    -0.00600
Br706      Br  0.34967340  0.40574088  0.59066071    -0.00600
C707        C  0.09228806  0.18524071  0.69989708    -0.01700
C708        C  0.08066377  0.18879431  0.66797980     0.07900
C709        C  0.09565476  0.19188292  0.63599701    -0.01900
C710        C  0.12257621  0.19191877  0.63601013    -0.01900
C711        C  0.13455583  0.18906750  0.66805569     0.08100
C712        C  0.11920743  0.18523853  0.69990415    -0.02100
Br713      Br  0.13453441  0.17892620  0.74330502    -0.00600
Br714      Br  0.07109085  0.17983877  0.74348919    -0.00700
Br715      Br  0.14331622  0.19654566  0.59215441    -0.00600
Br716      Br  0.07990523  0.19721032  0.59227993    -0.00600
C717        C  0.52380528  0.26177120  0.97699265    -0.01700
C718        C  0.03049885  0.25214837  0.00846877     0.07900
C719        C  0.03658192  0.26898156  0.53956709    -0.01900
C720        C  0.03603887  0.29560207  0.53909493    -0.01900
C721        C  0.02941366  0.30522163  0.00752580     0.08100
C722        C  0.52326046  0.28828807  0.97651839    -0.02100
Br723      Br  0.51324517  0.30099252  0.93351497    -0.00600
Br724      Br  0.51454085  0.23814417  0.93464443    -0.00700
Br725      Br  0.04488519  0.31914733  0.58136644    -0.00600
Br726      Br  0.04612057  0.25577939  0.58246663    -0.00600
C727        C  0.28410689  0.51679352  0.53017853    -0.01700
C728        C  0.30083849  0.02480571  0.00176472     0.07900
C729        C  0.29048766  0.03200649  0.97127371    -0.01900
C730        C  0.26281036  0.03033499  0.97163243    -0.01900
C731        C  0.24610046  0.02258852  0.00290004     0.08100
C732        C  0.25704001  0.51647221  0.53088405    -0.02100
Br733      Br  0.23355838  0.50537046  0.57332206    -0.00600
Br734      Br  0.29738347  0.50487088  0.57116258    -0.00700
Br735      Br  0.24790558  0.03898300  0.92942208    -0.00600
Br736      Br  0.31479952  0.04528874  0.92951010    -0.00600
C737        C  0.46105113  0.11787125  0.79682802    -0.01700
C738        C  0.47067535  0.13536326  0.82756894     0.07900
C739        C  0.45324325  0.12616284  0.85829039    -0.01900
C740        C  0.42657804  0.09907152  0.85862133    -0.01900
C741        C  0.41703676  0.08145438  0.82801369     0.08100
C742        C  0.43398599  0.09105670  0.79691501    -0.02100
Br743      Br  0.42003194  0.06754201  0.75451025    -0.00600
Br744      Br  0.98515765  0.13045273  0.75488453    -0.00700
Br745      Br  0.40255301  0.08649007  0.90066414    -0.00600
Br746      Br  0.46540113  0.15125976  0.89951793    -0.00600
C747        C  0.09333560  0.43072235  0.69508905    -0.01700
C748        C  0.08328515  0.41498407  0.66316836     0.07900
C749        C  0.09984865  0.42620179  0.63204892    -0.01900
C750        C  0.12649323  0.45330370  0.63282944    -0.01900
C751        C  0.13642005  0.46915619  0.66469594     0.08100
C752        C  0.12000258  0.45778258  0.69589897    -0.02100
Br753      Br  0.13583930  0.97794955  0.74110818    -0.00600
Br754      Br  0.07009678  0.41559190  0.73748911    -0.00700
Br755      Br  0.14988305  0.46827303  0.59052491    -0.00600
Br756      Br  0.08631282  0.40420768  0.58854469    -0.00600
C757        C  0.05445147  0.88727512  0.16374068     0.03200
C758        C  0.02925069  0.88621797  0.14985343    -0.12900
C759        C  0.50200030  0.85969467  0.14931797     0.00700
C760        C  0.50012940  0.83419370  0.16495083    -0.11400
C761        C  0.02566006  0.83546192  0.17995504     0.03200
C762        C  0.05279340  0.86203007  0.17802166    -0.10900
H763        H  0.03137808  0.90614572  0.13839167     0.08800
H764        H  0.47910185  0.81368103  0.16548556     0.06400
H765        H  0.07274386  0.86377492  0.18916901     0.06200
C766        C  0.16419902  0.99742669  0.16579112     0.03200
C767        C  0.18918372  0.49963161  0.18125341    -0.12900
C768        C  0.21592925  0.52661047  0.18277846     0.00700
C769        C  0.21762520  0.55170428  0.16621883    -0.11400
C770        C  0.19232652  0.54949231  0.14926241     0.03200
C771        C  0.16564112  0.52238109  0.14999566    -0.10900
H772        H  0.18740324  0.97979768  0.19322692     0.08800
H773        H  0.23829421  0.57258938  0.16647447     0.06400
H774        H  0.14591530  0.51993332  0.13730894     0.06200
C775        C  0.99896154  0.66375851  0.32708015     0.03200
C776        C  0.02345403  0.66605207  0.34464160    -0.12900
C777        C  0.04995596  0.69326102  0.34741117     0.00700
C778        C  0.05165560  0.71842825  0.33087285    -0.11400
C779        C  0.02673456  0.71602637  0.31258921     0.03200
C780        C  0.00053833  0.68848284  0.31135802    -0.10900
H781        H  0.02119608  0.64648449  0.35730195     0.08800
H782        H  0.07197472  0.73957980  0.33237860     0.06400
H783        H  0.48115266  0.68587104  0.29761324     0.06200
C784        C  0.38919349  0.55339636  0.32820896     0.03200
C785        C  0.38721479  0.52868957  0.34466371    -0.12900
C786        C  0.35936328  0.00225697  0.34779853     0.00700
C787        C  0.33391426  0.00083650  0.33225060    -0.11400
C788        C  0.33662058  0.52577508  0.31423083     0.03200
C789        C  0.36413056  0.55199508  0.31338094    -0.10900
H790        H  0.40698825  0.53072195  0.35671814     0.08800
H791        H  0.31270061  0.98058084  0.33370215     0.06400
H792        H  0.36648541  0.57149854  0.30042879     0.06200
O793        O  0.31470257  0.55198365  0.21370328    -0.74300
O794        O  0.26170143  0.55003290  0.28547450    -0.74300
O795        O  0.31431880  0.54984638  0.28431727    -0.74400
O796        O  0.26198057  0.55220132  0.21481143    -0.74500
O797        O  0.23749404  0.50299649  0.21474998    -0.74400
O798        O  0.28927277  0.00069760  0.28471537    -0.74400
O799        O  0.23680941  0.50082727  0.28529501    -0.74300
O800        O  0.28963094  0.50277875  0.21363597    -0.74400
Ni801      Ni  0.28906018  0.55277547  0.24975328     1.25400
Ni802      Ni  0.26252952  0.50009592  0.24938865     1.25400
C803        C  0.31154523  0.52730537  0.20300936     0.87900
C804        C  0.23963702  0.52541948  0.29575556     0.87800
C805        C  0.31183404  0.52518892  0.29411301     0.87800
C806        C  0.24014055  0.52757546  0.20442930     0.88000
O807        O  0.50012155  0.78944773  0.21156183    -0.74300
O808        O  0.00254809  0.73777777  0.28165210    -0.74300
O809        O  0.00197361  0.78995261  0.28216513    -0.74400
O810        O  0.50037559  0.73687954  0.21118338    -0.74500
O811        O  0.04974246  0.76158489  0.21153183    -0.74400
O812        O  0.05131819  0.81518745  0.28219298    -0.74400
O813        O  0.05190379  0.76259874  0.28206989    -0.74300
O814        O  0.04946941  0.81378397  0.21151624    -0.74400
Ni815      Ni  0.49952278  0.76265443  0.24675274     1.25400
Ni816      Ni  0.05235695  0.78919480  0.24672844     1.25400
C817        C  0.02480387  0.81119405  0.20122019     0.87900
C818        C  0.02730455  0.74049872  0.29193838     0.87800
C819        C  0.02651604  0.81207625  0.29260948     0.87800
C820        C  0.02504981  0.73957559  0.20115465     0.88000
C821        C  0.32978501  0.52613564  0.49858986     0.03200
C822        C  0.33152753  0.50294424  0.48302011    -0.12900
C823        C  0.35854653  0.50315458  0.48148903     0.00700
C824        C  0.38396719  0.52700419  0.99723952    -0.11400
C825        C  0.38205850  0.55042718  0.01359848     0.03200
C826        C  0.35483638  0.54981355  0.01335467    -0.10900
H827        H  0.31104502  0.98424491  0.47358002     0.08800
H828        H  0.40488463  0.52728209  0.99688739     0.06400
H829        H  0.35257163  0.56724896  0.02584353     0.06200
C830        C  0.21879751  0.52386684  0.50099953     0.03200
C831        C  0.19389018  0.50063428  0.48549394    -0.12900
C832        C  0.16716817  0.50094471  0.48345261     0.00700
C833        C  0.16544431  0.52467937  0.49925267    -0.11400
C834        C  0.19073991  0.54804591  0.01587939     0.03200
C835        C  0.21735232  0.54743670  0.01578519    -0.10900
H836        H  0.19490891  0.98126581  0.47644018     0.08800
H837        H  0.14485893  0.52504572  0.49846130     0.06400
H838        H  0.23714964  0.56499536  0.02809097     0.06200
C839        C  0.02992642  0.72385460  0.50785995     0.03200
C840        C  0.00573317  0.69862762  0.02141590    -0.12900
C841        C  0.00375291  0.67092580  0.01849236     0.00700
C842        C  0.02647718  0.66882099  0.00050200    -0.11400
C843        C  0.05086312  0.69442668  0.48594873     0.03200
C844        C  0.05251547  0.72185784  0.49079410    -0.10900
H845        H  0.48858426  0.70091267  0.03471707     0.08800
H846        H  0.02501525  0.64751130  0.99753870     0.06400
H847        H  0.07064227  0.74179247  0.47964285     0.06200
C848        C  0.02893709  0.83315138  0.50792544     0.03200
C849        C  0.05127876  0.85738698  0.49036665    -0.12900
C850        C  0.04965582  0.88313741  0.48547799     0.00700
C851        C  0.02559285  0.88478141  0.50053904    -0.11400
C852        C  0.00312835  0.86031016  0.01909669     0.03200
C853        C  0.00503625  0.83454011  0.02201279    -0.10900
H854        H  0.06919557  0.85530343  0.47891711     0.08800
H855        H  0.02419556  0.90465747  0.49758136     0.06400
H856        H  0.48808090  0.81535555  0.03576371     0.06200
C857        C  0.05307385  0.69093397  0.16558319     0.03200
C858        C  0.02771687  0.66747949  0.15098348    -0.12900
C859        C  0.50112125  0.66806621  0.14924136     0.00700
C860        C  0.49996862  0.69224248  0.16450781    -0.11400
C861        C  0.02559067  0.71574254  0.18038113     0.03200
C862        C  0.05212390  0.71499314  0.17981172    -0.10900
H863        H  0.02936973  0.64933789  0.13955340     0.08800
H864        H  0.47947105  0.69278609  0.16400514     0.06400
H865        H  0.07213578  0.73269404  0.19157081     0.06200
C866        C  0.16340036  0.69155108  0.16515549     0.03200
C867        C  0.16537631  0.66832111  0.15029451    -0.12900
C868        C  0.19245336  0.66870536  0.14907017     0.00700
C869        C  0.21772556  0.69261630  0.16506912    -0.11400
C870        C  0.21552218  0.71596766  0.18130939     0.03200
C871        C  0.18827101  0.71531349  0.18021616    -0.10900
H872        H  0.14559821  0.65036314  0.13844762     0.08800
H873        H  0.23868793  0.69299004  0.16499176     0.06400
H874        H  0.18582231  0.73278611  0.19227260     0.06200
O875        O  0.16831916  0.57078545  0.11733205    -0.74300
O876        O  0.16580710  0.62234607  0.04733299    -0.74300
O877        O  0.16556257  0.56934572  0.04681738    -0.74400
O878        O  0.16859127  0.62311536  0.11776153    -0.74500
O879        O  0.21794081  0.64808902  0.11722366    -0.74400
O880        O  0.21492360  0.59397429  0.04659564    -0.74400
O881        O  0.21516230  0.64650175  0.04677633    -0.74300
O882        O  0.21767903  0.59522491  0.11716498    -0.74400
Ni883      Ni  0.16533263  0.59552840  0.08239648     1.25400
Ni884      Ni  0.21817354  0.62179158  0.08176522     1.25400
C885        C  0.19303966  0.57350917  0.12765065     0.87900
C886        C  0.19046291  0.64423724  0.03719414     0.87800
C887        C  0.19014171  0.57191965  0.03655267     0.87800
C888        C  0.19331912  0.64522430  0.12782257     0.88000
C889        C  0.35887406  0.88866239  0.16746435     0.03200
C890        C  0.38250360  0.88711421  0.15274721    -0.12900
C891        C  0.38224269  0.86018817  0.15070580     0.00700
C892        C  0.35837907  0.83475341  0.16620429    -0.11400
C893        C  0.33479126  0.83647970  0.18248263     0.03200
C894        C  0.33506321  0.86348721  0.18186902    -0.10900
H895        H  0.40051914  0.90699490  0.14133900     0.08800
H896        H  0.35816374  0.81392390  0.16560226     0.06400
H897        H  0.31720776  0.86545218  0.19371066     0.06200
C898        C  0.35860865  0.99845463  0.16584618     0.03200
C899        C  0.38106960  0.52246216  0.14871287    -0.11100
C900        C  0.38113202  0.54934984  0.14739776     0.00700
C901        C  0.35784274  0.55135193  0.16411400    -0.11400
C902        C  0.33453973  0.52625461  0.18088389     0.03200
C903        C  0.33521250  0.00013163  0.18095481    -0.10900
H904        H  0.39869183  0.52028928  0.13654187     0.08800
H905        H  0.35790802  0.57210980  0.16418785     0.06400
H906        H  0.31766158  0.98047491  0.19332299     0.06200
O907        O  0.42763809  0.88391774  0.11871833    -0.74300
O908        O  0.48137700  0.88579220  0.04828507    -0.74300
O909        O  0.42835156  0.88586277  0.04809306    -0.74400
O910        O  0.48009540  0.88379785  0.11869770    -0.74500
O911        O  0.45538868  0.83458026  0.11876172    -0.74400
O912        O  0.40404705  0.83666113  0.04797458    -0.74400
O913        O  0.45655087  0.83656782  0.04844904    -0.74300
O914        O  0.40260740  0.83471172  0.11854824    -0.74400
Ni915      Ni  0.45521866  0.88659513  0.08353362     1.25400
Ni916      Ni  0.42874872  0.83390740  0.08329308     1.25400
C917        C  0.40558144  0.85935250  0.12904953     0.87900
C918        C  0.47883055  0.86114380  0.03857194     0.87800
C919        C  0.40649696  0.86119708  0.03779117     0.87800
C920        C  0.47744319  0.85915427  0.12883817     0.88000
O921        O  0.45678491  0.64819630  0.04717424    -0.74300
O922        O  0.40193912  0.59553627  0.11609142    -0.74300
O923        O  0.45504962  0.64807811  0.11755128    -0.74400
O924        O  0.40392874  0.59588594  0.04546339    -0.74500
O925        O  0.42823832  0.57091263  0.04489394    -0.74400
O926        O  0.47911424  0.62286857  0.11706562    -0.74400
O927        O  0.42651070  0.57083682  0.11540107    -0.74300
O928        O  0.48136288  0.62348310  0.04670593    -0.74400
Ni929      Ni  0.42852729  0.62278763  0.08143541     1.25400
Ni930      Ni  0.45463621  0.59613407  0.08106202     1.25400
C931        C  0.47910000  0.64579670  0.03740369     0.87900
C932        C  0.40457053  0.57354358  0.12596841     0.87800
C933        C  0.47669888  0.64489203  0.12776640     0.87800
C934        C  0.40646367  0.57390648  0.03478776     0.88000
C935        C  0.21950017  0.72168287  0.00445795     0.03200
C936        C  0.21778965  0.69642688  0.01870505    -0.12900
C937        C  0.19128516  0.66917651  0.01743570     0.00700
C938        C  0.16630361  0.66758158  0.00034200    -0.11400
C939        C  0.16819602  0.69326170  0.48509151     0.03200
C940        C  0.19488221  0.72022718  0.48818021    -0.10900
H941        H  0.23731570  0.69841970  0.03142931     0.08800
H942        H  0.14578991  0.64661620  0.99866666     0.06400
H943        H  0.19722595  0.74016301  0.47648088     0.06200
C944        C  0.32966860  0.83139317  0.00141919     0.03200
C945        C  0.35485316  0.83340245  0.01661276    -0.12900
C946        C  0.38188785  0.86014304  0.01676478     0.00700
C947        C  0.38343739  0.88508625  0.99995019    -0.11400
C948        C  0.35790090  0.88295821  0.48363995     0.03200
C949        C  0.33108274  0.85593224  0.48517535    -0.10900
H950        H  0.35282216  0.81398203  0.02943379     0.08800
H951        H  0.40423437  0.90583688  0.99950699     0.06400
H952        H  0.31122127  0.85349537  0.47289361     0.06200
C953        C  0.49628531  0.85752171  0.33309161     0.03200
C954        C  0.99825319  0.83480976  0.31641732    -0.12900
C955        C  0.02537563  0.83514432  0.31456986     0.00700
C956        C  0.05065420  0.85860943  0.33111917    -0.11400
C957        C  0.04849268  0.88150086  0.34856325     0.03200
C958        C  0.02119857  0.88073608  0.34865733    -0.10900
H959        H  0.47855307  0.81734163  0.30385433     0.08800
H960        H  0.07164616  0.85905580  0.33043387     0.06400
H961        H  0.01879327  0.89784550  0.36181108     0.06200
C962        C  0.38642061  0.85820327  0.33454718     0.03200
C963        C  0.38483923  0.88146524  0.35017596    -0.12900
C964        C  0.35831347  0.88229272  0.35000904     0.00700
C965        C  0.33312305  0.85926010  0.33274917    -0.11400
C966        C  0.33479005  0.83567487  0.31639364     0.03200
C967        C  0.36161335  0.83543954  0.31807634    -0.10900
H968        H  0.40444746  0.89864895  0.36321084     0.08800
H969        H  0.31258023  0.85970576  0.33203028     0.06400
H970        H  0.36379012  0.81797571  0.30553122     0.06200
O971        O  0.33412861  0.90452061  0.45117487    -0.74300
O972        O  0.33327170  0.95656403  0.38020589    -0.74300
O973        O  0.33282168  0.90349597  0.38054436    -0.74400
O974        O  0.33439641  0.95719223  0.45090652    -0.74500
O975        O  0.38374104  0.98195661  0.45156046    -0.74400
O976        O  0.38216991  0.92796772  0.38156706    -0.74400
O977        O  0.38260550  0.98062868  0.38092256    -0.74300
O978        O  0.38347138  0.92900436  0.45215604    -0.74400
Ni979      Ni  0.33190678  0.92959562  0.41579241     1.25400
Ni980      Ni  0.38472393  0.95574903  0.41648110     1.25400
C981        C  0.35869572  0.90711687  0.46201826     0.87900
C982        C  0.35814283  0.97819401  0.37003541     0.87800
C983        C  0.35753616  0.90602844  0.37091425     0.87800
C984        C  0.35899326  0.97921497  0.46146940     0.88000
C985        C  0.19168535  0.55386933  0.33315463     0.03200
C986        C  0.16842172  0.52873719  0.34827853    -0.12900
C987        C  0.16797148  0.00156947  0.34940718     0.00700
C988        C  0.19180523  0.00020583  0.33317012    -0.11400
C989        C  0.21597288  0.52604948  0.31709401     0.03200
C990        C  0.21537841  0.55261148  0.31806685    -0.10900
H991        H  0.15055983  0.53057690  0.36031704     0.08800
H992        H  0.19227314  0.97971894  0.33337597     0.06400
H993        H  0.23288519  0.57241371  0.30589608     0.06200
C994        C  0.19164070  0.66388572  0.33196899     0.03200
C995        C  0.21475414  0.68864987  0.31596949    -0.12900
C996        C  0.21517923  0.71574439  0.31541682     0.00700
C997        C  0.19202743  0.71778155  0.33250379    -0.11400
C998        C  0.16867790  0.69269951  0.34929635     0.03200
C999        C  0.16870904  0.66585225  0.34815027    -0.10900
H1000       H  0.23204665  0.68633712  0.30310645     0.08800
H1001       H  0.19218674  0.73858621  0.33274247     0.06400
H1002       H  0.15130340  0.64632923  0.36089876     0.06200
O1003       O  0.12250254  0.66804288  0.45233956    -0.74300
O1004       O  0.07102562  0.66987581  0.38124653    -0.74300
O1005       O  0.12333573  0.66943428  0.38163377    -0.74400
O1006       O  0.07000380  0.66856932  0.45212497    -0.74500
O1007       O  0.09517481  0.71775541  0.45166042    -0.74400
O1008       O  0.14840875  0.71862382  0.38096474    -0.74400
O1009       O  0.09562165  0.71905148  0.38068015    -0.74300
O1010       O  0.14738338  0.71723299  0.45175753    -0.74400
Ni1011     Ni  0.09581760  0.66726435  0.41671655     1.25400
Ni1012     Ni  0.12251431  0.71991260  0.41633390     1.25400
C1013       C  0.14442025  0.69263401  0.46266888     0.87900
C1014       C  0.07381424  0.69437032  0.37026045     0.87800
C1015       C  0.14542074  0.69384814  0.37095510     0.87800
C1016       C  0.07332001  0.69333682  0.46270490     0.88000
O1017       O  0.09475425  0.90230872  0.38005699    -0.74300
O1018       O  0.14575378  0.95556460  0.45135562    -0.74300
O1019       O  0.09368131  0.90334800  0.45083298    -0.74400
O1020       O  0.14752046  0.95532497  0.38066801    -0.74500
O1021       O  0.12229161  0.97936107  0.38086722    -0.74400
O1022       O  0.06873934  0.92767400  0.45124102    -0.74400
O1023       O  0.12123178  0.98031561  0.45152185    -0.74300
O1024       O  0.07001335  0.92684522  0.38048735    -0.74400
Ni1025     Ni  0.12129927  0.92826027  0.41576756     1.25400
Ni1026     Ni  0.09467511  0.95438785  0.41585494     1.25400
C1027       C  0.07279865  0.90499199  0.36990602     0.87900
C1028       C  0.14286376  0.97729163  0.46217502     0.87800
C1029       C  0.07196724  0.90624318  0.46192087     0.87800
C1030       C  0.14454144  0.97706730  0.37057513     0.88000
O1031       O  0.23570641  0.76196172  0.28424723    -0.74300
O1032       O  0.28899568  0.81420251  0.21385345    -0.74300
O1033       O  0.23673116  0.76136191  0.21355492    -0.74400
O1034       O  0.28850595  0.81512091  0.28450367    -0.74500
O1035       O  0.31311055  0.79046616  0.28397954    -0.74400
O1036       O  0.26175848  0.73712052  0.21284590    -0.74400
O1037       O  0.31428839  0.79022417  0.21338881    -0.74300
O1038       O  0.26075227  0.73774183  0.28345973    -0.74400
Ni1039     Ni  0.26158500  0.78901292  0.24895276     1.25400
Ni1040     Ni  0.28835669  0.76304831  0.24850888     1.25400
C1041       C  0.23862631  0.74013125  0.29409351     0.87900
C1042       C  0.31123380  0.81194701  0.20342237     0.87800
C1043       C  0.23967152  0.73961775  0.20280102     0.87800
C1044       C  0.31047229  0.81238592  0.29462590     0.88000
C1045       C  0.19884465  0.62611216  0.36336147    -0.01700
C1046       C  0.19157780  0.63567192  0.33221591     0.07900
C1047       C  0.18391962  0.61818124  0.30149915    -0.01900
C1048       C  0.18397137  0.59133098  0.30180147    -0.01900
C1049       C  0.19121421  0.58178976  0.33297213     0.08100
C1050       C  0.19827605  0.59897631  0.36387262    -0.02100
Br1051     Br  0.20738771  0.58542569  0.40680580    -0.00600
Br1052     Br  0.21039149  0.65059792  0.40503997    -0.00700
Br1053     Br  0.17348099  0.56723043  0.25980260    -0.00600
Br1054     Br  0.17268171  0.63068771  0.25931664    -0.00600
C1055       C  0.45045912  0.84880591  0.36415204    -0.01700
C1056       C  0.46809491  0.85754451  0.33357979     0.07900
C1057       C  0.45937172  0.86725863  0.30375952    -0.01900
C1058       C  0.43285372  0.86804962  0.30441863    -0.01900
C1059       C  0.41460342  0.85813799  0.33442516     0.08100
C1060       C  0.42332612  0.84842794  0.36426216    -0.02100
Br1061     Br  0.39791011  0.83423595  0.40497576    -0.00600
Br1062     Br  0.46373414  0.83787147  0.40596526    -0.00700
Br1063     Br  0.42188276  0.88354197  0.26471787    -0.00600
Br1064     Br  0.48423091  0.88025551  0.26243712    -0.00600
C1065       C  0.29295857  0.78393197  0.47337474    -0.01700
C1066       C  0.30161159  0.80315740  0.00253257     0.07900
C1067       C  0.28400203  0.79507038  0.03312692    -0.01900
C1068       C  0.25715437  0.76809760  0.03406553    -0.01900
C1069       C  0.24796065  0.74948558  0.00429767     0.08100
C1070       C  0.26601557  0.75716946  0.47416632    -0.02100
Br1071     Br  0.25399993  0.73069217  0.43425918    -0.00600
Br1072     Br  0.31844916  0.79384914  0.43284186    -0.00700
Br1073     Br  0.23302134  0.75651920  0.07597850    -0.00600
Br1074     Br  0.29681014  0.82092434  0.07365308    -0.00600
C1075       C  0.36228117  0.93223682  0.19888420    -0.01700
C1076       C  0.35889701  0.91682452  0.16713501     0.07900
C1077       C  0.35571022  0.92833767  0.13494375    -0.01900
C1078       C  0.35528067  0.95495090  0.13460046    -0.01900
C1079       C  0.35874859  0.97039916  0.16632468     0.08100
C1080       C  0.36233901  0.95911473  0.19846615    -0.02100
Br1081     Br  0.36801663  0.48056088  0.24037162    -0.00600
Br1082     Br  0.36793728  0.91710014  0.24278200    -0.00700
Br1083     Br  0.34874521  0.96962261  0.09081485    -0.00600
Br1084     Br  0.35142683  0.90746286  0.09127834    -0.00600
C1085       C  0.09200745  0.68547765  0.19689486    -0.01700
C1086       C  0.08102819  0.69052522  0.16537320     0.07900
C1087       C  0.09668202  0.69521132  0.13358195    -0.01900
C1088       C  0.12363677  0.69530330  0.13342786    -0.01900
C1089       C  0.13487918  0.69080730  0.16510075     0.08100
C1090       C  0.11886869  0.68539632  0.19670136    -0.02100
Br1091     Br  0.13323629  0.67680913  0.23939812    -0.00600
Br1092     Br  0.07007549  0.67827593  0.24021079    -0.00700
Br1093     Br  0.14536070  0.70203777  0.08995716    -0.00600
Br1094     Br  0.08164870  0.70241507  0.09047474    -0.00600
C1095       C  0.52279650  0.76170538  0.47735039    -0.01700
C1096       C  0.03007204  0.75203231  0.50835952     0.07900
C1097       C  0.03662500  0.76875473  0.03962150    -0.01900
C1098       C  0.03621504  0.79544317  0.03969429    -0.01900
C1099       C  0.02922418  0.80520178  0.50851018     0.08100
C1100       C  0.52234239  0.78826228  0.47743285    -0.02100
Br1101     Br  0.51139127  0.80101869  0.43515487    -0.00600
Br1102     Br  0.51255371  0.73807574  0.43493702    -0.00700
Br1103     Br  0.04558870  0.81882022  0.08217967    -0.00600
Br1104     Br  0.04648292  0.75524981  0.08203222    -0.00600
C1105       C  0.28401426  0.01678414  0.03297233    -0.01700
C1106       C  0.30141602  0.52563267  0.49936627     0.07900
C1107       C  0.29169780  0.53392409  0.46920399    -0.01900
C1108       C  0.26416112  0.53257550  0.46949161    -0.01900
C1109       C  0.24703881  0.52413920  0.50044391     0.08100
C1110       C  0.25669565  0.01597775  0.03364495    -0.02100
Br1111     Br  0.23361869  0.00553604  0.07639334    -0.00600
Br1112     Br  0.29833322  0.00672566  0.07457423    -0.00700
Br1113     Br  0.24996693  0.54250077  0.42764286    -0.00600
Br1114     Br  0.31660651  0.54808085  0.42800911    -0.00600
C1115       C  0.46263720  0.61662572  0.29752814    -0.01700
C1116       C  0.47083467  0.63554162  0.32698568     0.07900
C1117       C  0.45216669  0.62767146  0.35658533    -0.01900
C1118       C  0.42564866  0.60045550  0.35717336    -0.01900
C1119       C  0.41746057  0.58147966  0.32779120     0.08100
C1120       C  0.43571662  0.58969904  0.29776362    -0.02100
Br1121     Br  0.42368895  0.56414439  0.25700848    -0.00600
Br1122     Br  0.98835379  0.62756164  0.25708553    -0.00700
Br1123     Br  0.40024951  0.58929972  0.39797332    -0.00600
Br1124     Br  0.46261726  0.65463641  0.39586260    -0.00600
C1125       C  0.09377692  0.93039215  0.19640332    -0.01700
C1126       C  0.08271620  0.91528522  0.16426663     0.07900
C1127       C  0.09863528  0.92676614  0.13278800    -0.01900
C1128       C  0.12555017  0.95359678  0.13338270    -0.01900
C1129       C  0.13634616  0.96899291  0.16540490     0.08100
C1130       C  0.12069744  0.95721435  0.19701754    -0.02100
Br1131     Br  0.13375791  0.47948924  0.23961790    -0.00600
Br1132     Br  0.07159404  0.91474504  0.23943323    -0.00700
Br1133     Br  0.14826123  0.96865040  0.09060403    -0.00600
Br1134     Br  0.08392663  0.90540914  0.08902246    -0.00600
C1135       C  0.05445088  0.88727437  0.66374030     0.03200
C1136       C  0.02925024  0.88621681  0.64985203    -0.12900
C1137       C  0.50199950  0.85969363  0.64931723     0.00700
C1138       C  0.50012869  0.83419287  0.66495064    -0.11400
C1139       C  0.02565964  0.83546133  0.67995541     0.03200
C1140       C  0.05279281  0.86202969  0.67802238    -0.10900
H1141       H  0.03137770  0.90614435  0.63838948     0.08800
H1142       H  0.47910125  0.81368007  0.66548518     0.06400
H1143       H  0.07274323  0.86377496  0.68917068     0.06200
C1144       C  0.16419790  0.99742614  0.66579177     0.03200
C1145       C  0.18918283  0.49963128  0.68125458    -0.12900
C1146       C  0.21592847  0.52661004  0.68277929     0.00700
C1147       C  0.21762458  0.55170377  0.66621921    -0.11400
C1148       C  0.19232598  0.54949181  0.64926252     0.03200
C1149       C  0.16564056  0.52238061  0.64999579    -0.10900
H1150       H  0.18740155  0.97979745  0.69322955     0.08800
H1151       H  0.23829367  0.57258884  0.66647469     0.06400
H1152       H  0.14591483  0.51993276  0.63730870     0.06200
C1153       C  0.99896228  0.66375867  0.82708101     0.03200
C1154       C  0.02345477  0.66605235  0.84464265    -0.12900
C1155       C  0.04995667  0.69326139  0.84741228     0.00700
C1156       C  0.05165620  0.71842856  0.83087392    -0.11400
C1157       C  0.02673516  0.71602659  0.81259020     0.03200
C1158       C  0.00053902  0.68848298  0.81135889    -0.10900
H1159       H  0.02119688  0.64648483  0.85730303     0.08800
H1160       H  0.07197529  0.73958021  0.83237973     0.06400
H1161       H  0.48115224  0.68587160  0.79761603     0.06200
C1162       C  0.38919362  0.55339648  0.82820946     0.03200
C1163       C  0.38721489  0.52868976  0.84466447    -0.12900
C1164       C  0.35936366  0.00225792  0.84779887     0.00700
C1165       C  0.33391474  0.00083715  0.83225021    -0.11400
C1166       C  0.33662084  0.52577489  0.81423051     0.03200
C1167       C  0.36413078  0.55199498  0.81338083    -0.10900
H1168       H  0.40698820  0.53072228  0.85671932     0.08800
H1169       H  0.31270132  0.98058130  0.83370105     0.06400
H1170       H  0.36648562  0.57149837  0.80042855     0.06200
O1171       O  0.31470184  0.55198274  0.71370256    -0.74300
O1172       O  0.26170194  0.55003293  0.78547488    -0.74300
O1173       O  0.31431909  0.54984606  0.78431660    -0.74400
O1174       O  0.26198009  0.55220083  0.71481173    -0.74500
O1175       O  0.23749328  0.50299600  0.71475081    -0.74400
O1176       O  0.28927317  0.00069790  0.78471486    -0.74400
O1177       O  0.23680972  0.50082730  0.78529593    -0.74300
O1178       O  0.28963001  0.50277783  0.71363577    -0.74400
Ni1179     Ni  0.28906008  0.55277504  0.74975307     1.25400
Ni1180     Ni  0.26252918  0.50009549  0.74938901     1.25400
C1181       C  0.31154421  0.52730433  0.70300869     0.87900
C1182       C  0.23963769  0.52541965  0.79575656     0.87800
C1183       C  0.31183429  0.52518865  0.79411255     0.87800
C1184       C  0.24013984  0.52757497  0.70442999     0.88000
O1185       O  0.50012094  0.78944737  0.71156267    -0.74300
O1186       O  0.00254848  0.73777789  0.78165330    -0.74300
O1187       O  0.00197400  0.78995279  0.78216596    -0.74400
O1188       O  0.50037484  0.73687901  0.71118474    -0.74500
O1189       O  0.04974226  0.76158449  0.71153246    -0.74400
O1190       O  0.05131859  0.81518761  0.78219331    -0.74400
O1191       O  0.05190418  0.76259885  0.78207055    -0.74300
O1192       O  0.04946921  0.81378360  0.71151660    -0.74400
Ni1193     Ni  0.49952239  0.76265436  0.74675388     1.25400
Ni1194     Ni  0.05235704  0.78919466  0.74672892     1.25400
C1195       C  0.02480359  0.81119360  0.70122074     0.87900
C1196       C  0.02730501  0.74049888  0.79193935     0.87800
C1197       C  0.02651652  0.81207655  0.79260995     0.87800
C1198       C  0.02504955  0.73957512  0.70115550     0.88000
C1199       C  0.32978470  0.52613474  0.99859251     0.03200
C1200       C  0.33152729  0.50294349  0.98302240    -0.12900
C1201       C  0.35854651  0.50315432  0.98149031     0.00700
C1202       C  0.38396711  0.52700418  0.49723876    -0.11400
C1203       C  0.38205854  0.55042736  0.51359741     0.03200
C1204       C  0.35483661  0.54981415  0.51335269    -0.10900
H1205       H  0.31104540  0.98424524  0.97358060     0.08800
H1206       H  0.40488438  0.52728171  0.49688734     0.06400
H1207       H  0.35257190  0.56724966  0.52584142     0.06200
C1208       C  0.21879706  0.52386542  0.00100297     0.03200
C1209       C  0.19388971  0.50063291  0.98549736    -0.12900
C1210       C  0.16716811  0.50094402  0.98345473     0.00700
C1211       C  0.16544455  0.52467916  0.99925384    -0.11400
C1212       C  0.19073970  0.54804623  0.51587809     0.03200
C1213       C  0.21735243  0.54743762  0.51578275    -0.10900
H1214       H  0.19490896  0.98126554  0.97644117     0.08800
H1215       H  0.14485941  0.52504601  0.99846150     0.06400
H1216       H  0.23714974  0.56499627  0.52808859     0.06200
C1217       C  0.02992526  0.72385481  0.00785910     0.03200
C1218       C  0.00573409  0.69862750  0.52141654    -0.12900
C1219       C  0.00375321  0.67092544  0.51849229     0.00700
C1220       C  0.02647710  0.66882032  0.50050143    -0.11400
C1221       C  0.05086296  0.69442744  0.98594906     0.03200
C1222       C  0.05251463  0.72185836  0.99079360    -0.10900
H1223       H  0.48858548  0.70091265  0.53471879     0.08800
H1224       H  0.02501464  0.64751041  0.49753749     0.06400
H1225       H  0.07064128  0.74179307  0.97964217     0.06200
C1226       C  0.02893678  0.83315200  0.00792511     0.03200
C1227       C  0.05127852  0.85738749  0.99036628    -0.12900
C1228       C  0.04965597  0.88313817  0.98547801     0.00700
C1229       C  0.02559332  0.88478252  0.00053949    -0.11400
C1230       C  0.00312795  0.86030896  0.51909618     0.03200
C1231       C  0.00503624  0.83453915  0.52201268    -0.10900
H1232       H  0.06919508  0.85530368  0.97891644     0.08800
H1233       H  0.02419633  0.90465876  0.99758211     0.06400
H1234       H  0.48808028  0.81535418  0.53576264     0.06200
C1235       C  0.05307377  0.69093391  0.66558293     0.03200
C1236       C  0.02771696  0.66747973  0.65098245    -0.12900
C1237       C  0.50112042  0.66806543  0.64924233     0.00700
C1238       C  0.49996768  0.69224163  0.66450893    -0.11400
C1239       C  0.02559036  0.71574210  0.68038173     0.03200
C1240       C  0.05212360  0.71499271  0.67981226    -0.10900
H1241       H  0.02937002  0.64933840  0.63955167     0.08800
H1242       H  0.47947003  0.69278509  0.66400644     0.06400
H1243       H  0.07213539  0.73269338  0.69157192     0.06200
C1244       C  0.16339994  0.69155034  0.66515686     0.03200
C1245       C  0.16537590  0.66832062  0.65029512    -0.12900
C1246       C  0.19245284  0.66870464  0.64907095     0.00700
C1247       C  0.21772502  0.69261526  0.66507049    -0.11400
C1248       C  0.21552164  0.71596646  0.68131134     0.03200
C1249       C  0.18827046  0.71531230  0.68021836    -0.10900
H1250       H  0.14559789  0.65036304  0.63844753     0.08800
H1251       H  0.23868729  0.69298894  0.66499303     0.06400
H1252       H  0.18582172  0.73278474  0.69227531     0.06200
O1253       O  0.16831865  0.57078494  0.61733202    -0.74300
O1254       O  0.16580648  0.62234556  0.54733295    -0.74300
O1255       O  0.16556211  0.56934534  0.54681724    -0.74400
O1256       O  0.16859070  0.62311488  0.61776165    -0.74500
O1257       O  0.21794023  0.64808848  0.61722394    -0.74400
O1258       O  0.21492314  0.59397408  0.54659551    -0.74400
O1259       O  0.21516167  0.64650138  0.54677648    -0.74300
O1260       O  0.21767851  0.59522439  0.61716494    -0.74400
Ni1261     Ni  0.16533208  0.59552793  0.58239648     1.25400
Ni1262     Ni  0.21817298  0.62179117  0.58176530     1.25400
C1263       C  0.19303915  0.57350865  0.62765062     0.87900
C1264       C  0.19046226  0.64423667  0.53719394     0.87800
C1265       C  0.19014130  0.57191950  0.53655228     0.87800
C1266       C  0.19331855  0.64522373  0.62782291     0.88000
C1267       C  0.35887259  0.88866101  0.66746212     0.03200
C1268       C  0.38250218  0.88711282  0.65274504    -0.12900
C1269       C  0.38224158  0.86018688  0.65070437     0.00700
C1270       C  0.35837825  0.83475229  0.66620352    -0.11400
C1271       C  0.33479042  0.83647859  0.68248183     0.03200
C1272       C  0.33506203  0.86348592  0.68186742    -0.10900
H1273       H  0.40051749  0.90699336  0.64133642     0.08800
H1274       H  0.35816319  0.81392288  0.66560210     0.06400
H1275       H  0.31720653  0.86545089  0.69370904     0.06200
C1276       C  0.35860670  0.99845320  0.66584295     0.03200
C1277       C  0.38106783  0.52246072  0.64871086    -0.11100
C1278       C  0.38113053  0.54934857  0.64739638     0.00700
C1279       C  0.35784138  0.55135067  0.66411289    -0.11400
C1280       C  0.33453832  0.52625334  0.68088268     0.03200
C1281       C  0.33521070  0.00013036  0.68095186    -0.10900
H1282       H  0.39868998  0.52028783  0.63653966     0.08800
H1283       H  0.35790690  0.57210873  0.66418721     0.06400
H1284       H  0.31765958  0.98047357  0.69331971     0.06200
O1285       O  0.42763709  0.88391636  0.61871705    -0.74300
O1286       O  0.48137614  0.88579072  0.54828405    -0.74300
O1287       O  0.42835073  0.88586118  0.54809178    -0.74400
O1288       O  0.48009446  0.88379654  0.61869669    -0.74500
O1289       O  0.45538787  0.83457895  0.61876090    -0.74400
O1290       O  0.40404623  0.83665954  0.54797347    -0.74400
O1291       O  0.45655010  0.83656633  0.54844818    -0.74300
O1292       O  0.40260648  0.83471034  0.61854720    -0.74400
Ni1293     Ni  0.45521774  0.88659368  0.58353249     1.25400
Ni1294     Ni  0.42874789  0.83390595  0.58329214     1.25400
C1295       C  0.40558042  0.85935115  0.62904830     0.87900
C1296       C  0.47882974  0.86114232  0.53857097     0.87800
C1297       C  0.40649622  0.86119546  0.53778981     0.87800
C1298       C  0.47744235  0.85915303  0.62883726     0.88000
O1299       O  0.45678516  0.64819609  0.54717483    -0.74300
O1300       O  0.40193824  0.59553547  0.61609087    -0.74300
O1301       O  0.45504891  0.64807731  0.61755187    -0.74400
O1302       O  0.40392874  0.59588589  0.54546290    -0.74500
O1303       O  0.42823800  0.57091227  0.54489380    -0.74400
O1304       O  0.47911349  0.62286775  0.61706635    -0.74400
O1305       O  0.42650978  0.57083599  0.61540087    -0.74300
O1306       O  0.48136278  0.62348256  0.54670663    -0.74400
Ni1307     Ni  0.42852697  0.62278717  0.58143545     1.25400
Ni1308     Ni  0.45463568  0.59613343  0.58106232     1.25400
C1309       C  0.47910021  0.64579634  0.53740446     0.87900
C1310       C  0.40456943  0.57354262  0.62596773     0.87800
C1311       C  0.47669810  0.64489120  0.62776719     0.87800
C1312       C  0.40646357  0.57390637  0.53478726     0.88000
C1313       C  0.21949982  0.72168151  0.50445464     0.03200
C1314       C  0.21778918  0.69642580  0.51870279    -0.12900
C1315       C  0.19128449  0.66917555  0.51743454     0.00700
C1316       C  0.16630287  0.66758046  0.50034073    -0.11400
C1317       C  0.16819661  0.69326307  0.98509378     0.03200
C1318       C  0.19488259  0.72022867  0.98818348    -0.10900
H1319       H  0.23731527  0.69841878  0.53142710     0.08800
H1320       H  0.14578897  0.64661515  0.49866615     0.06400
H1321       H  0.19722623  0.74016466  0.97648478     0.06200
C1322       C  0.32966845  0.83139145  0.50141588     0.03200
C1323       C  0.35485292  0.83340060  0.51660958    -0.12900
C1324       C  0.38188736  0.86014143  0.51676290     0.00700
C1325       C  0.38343682  0.88508496  0.49994927    -0.11400
C1326       C  0.35790135  0.88295938  0.98364100     0.03200
C1327       C  0.33108300  0.85593364  0.98517757    -0.10900
H1328       H  0.35282196  0.81397994  0.52942991     0.08800
H1329       H  0.40423362  0.90583578  0.49950703     0.06400
H1330       H  0.31122150  0.85349664  0.97289583     0.06200
C1331       C  0.49628605  0.85752289  0.83309163     0.03200
C1332       C  0.99825387  0.83481044  0.81641733    -0.12900
C1333       C  0.02537626  0.83514489  0.81457000     0.00700
C1334       C  0.05065486  0.85861007  0.83111920    -0.11400
C1335       C  0.04849342  0.88150166  0.84856303     0.03200
C1336       C  0.02119937  0.88073699  0.84865691    -0.10900
H1337       H  0.47855359  0.81734283  0.80385429     0.08800
H1338       H  0.07164677  0.85905634  0.83043408     0.06400
H1339       H  0.01879411  0.89784647  0.86181049     0.06200
C1340       C  0.38642120  0.85820404  0.83454724     0.03200
C1341       C  0.38483971  0.88146598  0.85017593    -0.12900
C1342       C  0.35831391  0.88229336  0.85000895     0.00700
C1343       C  0.33312352  0.85926064  0.83274910    -0.11400
C1344       C  0.33479065  0.83567542  0.81639363     0.03200
C1345       C  0.36161401  0.83544025  0.81807638    -0.10900
H1346       H  0.40444790  0.89864973  0.86321079     0.08800
H1347       H  0.31258071  0.85970618  0.83203020     0.06400
H1348       H  0.36379089  0.81797641  0.80553128     0.06200
O1349       O  0.33412905  0.90452129  0.95117485    -0.74300
O1350       O  0.33327212  0.95656472  0.88020581    -0.74300
O1351       O  0.33282209  0.90349660  0.88054425    -0.74400
O1352       O  0.33439685  0.95719285  0.95090644    -0.74500
O1353       O  0.38374148  0.98195725  0.95156040    -0.74400
O1354       O  0.38217031  0.92796841  0.88156690    -0.74400
O1355       O  0.38260592  0.98062943  0.88092251    -0.74300
O1356       O  0.38347183  0.92900505  0.95215597    -0.74400
Ni1357     Ni  0.33190721  0.92959627  0.91579232     1.25400
Ni1358     Ni  0.38472436  0.95574971  0.91648099     1.25400
C1359       C  0.35869617  0.90711766  0.96201844     0.87900
C1360       C  0.35814324  0.97819479  0.87003544     0.87800
C1361       C  0.35753656  0.90602909  0.87091412     0.87800
C1362       C  0.35899368  0.97921555  0.96146941     0.88000
C1363       C  0.19168771  0.55387039  0.83315872     0.03200
C1364       C  0.16842383  0.52873816  0.84828212    -0.12900
C1365       C  0.16797223  0.00157008  0.84940754     0.00700
C1366       C  0.19180596  0.00020645  0.83317044    -0.11400
C1367       C  0.21597416  0.52604992  0.81709604     0.03200
C1368       C  0.21538042  0.55261228  0.81807023    -0.10900
H1369       H  0.15056212  0.53057798  0.86032106     0.08800
H1370       H  0.19227391  0.97971956  0.83337637     0.06400
H1371       H  0.23288735  0.57241456  0.80589973     0.06200
C1372       C  0.19164262  0.66388667  0.83197325     0.03200
C1373       C  0.21475586  0.68865070  0.81597331    -0.12900
C1374       C  0.21518055  0.71574499  0.81541957     0.00700
C1375       C  0.19202861  0.71778217  0.83250617    -0.11400
C1376       C  0.16867929  0.69270032  0.84929922     0.03200
C1377       C  0.16871077  0.66585320  0.84815411    -0.10900
H1378       H  0.23204852  0.68633793  0.80311049     0.08800
H1379       H  0.19218758  0.73858663  0.83274402     0.06400
H1380       H  0.15130525  0.64633034  0.86090283     0.06200
O1381       O  0.12250328  0.66804417  0.95234164    -0.74300
O1382       O  0.07102649  0.66987645  0.88124795    -0.74300
O1383       O  0.12333677  0.66943517  0.88163593    -0.74400
O1384       O  0.07000437  0.66857029  0.95212632    -0.74500
O1385       O  0.09517515  0.71775639  0.95166155    -0.74400
O1386       O  0.14840969  0.71862470  0.88096666    -0.74400
O1387       O  0.09562236  0.71905212  0.88068130    -0.74300
O1388       O  0.14738399  0.71723428  0.95175944    -0.74400
Ni1389     Ni  0.09581842  0.66726531  0.91671832     1.25400
Ni1390     Ni  0.12251496  0.71991356  0.91633541     1.25400
C1391       C  0.14442092  0.69263536  0.96267095     0.87900
C1392       C  0.07381500  0.69437086  0.87026168     0.87800
C1393       C  0.14542185  0.69384900  0.87095736     0.87800
C1394       C  0.07332029  0.69333776  0.96270590     0.88000
O1395       O  0.09475483  0.90230938  0.88005704    -0.74300
O1396       O  0.14575407  0.95556487  0.95135605    -0.74300
O1397       O  0.09368149  0.90334850  0.95083305    -0.74400
O1398       O  0.14752114  0.95532555  0.88066844    -0.74500
O1399       O  0.12229235  0.97936172  0.88086748    -0.74400
O1400       O  0.06873976  0.92767474  0.95124103    -0.74400
O1401       O  0.12123234  0.98031614  0.95152211    -0.74300
O1402       O  0.07001402  0.92684596  0.88048733    -0.74400
Ni1403     Ni  0.12129970  0.92826077  0.91576780     1.25400
Ni1404     Ni  0.09467571  0.95438852  0.91585506     1.25400
C1405       C  0.07279932  0.90499274  0.86990595     0.87900
C1406       C  0.14286415  0.97729194  0.96217544     0.87800
C1407       C  0.07196749  0.90624384  0.96192090     0.87800
C1408       C  0.14454218  0.97706792  0.87057551     0.88000
O1409       O  0.23570701  0.76196171  0.78424878    -0.74300
O1410       O  0.28899529  0.81420170  0.71385369    -0.74300
O1411       O  0.23673088  0.76136095  0.71355643    -0.74400
O1412       O  0.28850636  0.81512100  0.78450396    -0.74500
O1413       O  0.31311120  0.79046649  0.78397985    -0.74400
O1414       O  0.26175827  0.73711965  0.71284746    -0.74400
O1415       O  0.31428813  0.79022350  0.71338903    -0.74300
O1416       O  0.26075306  0.73774201  0.78346139    -0.74400
Ni1417     Ni  0.26158509  0.78901249  0.74895365     1.25400
Ni1418     Ni  0.28835694  0.76304806  0.74850981     1.25400
C1419       C  0.23862720  0.74013150  0.79409543     0.87900
C1420       C  0.31123333  0.81194615  0.70342232     0.87800
C1421       C  0.23967116  0.73961669  0.70280274     0.87800
C1422       C  0.31047286  0.81238626  0.79462607     0.88000
C1423       C  0.19884541  0.62611250  0.86336630    -0.01700
C1424       C  0.19157975  0.63567285  0.83222032     0.07900
C1425       C  0.18392291  0.61818281  0.80150311    -0.01900
C1426       C  0.18397484  0.59133265  0.80180537    -0.01900
C1427       C  0.19121665  0.58179089  0.83297636     0.08100
C1428       C  0.19827713  0.59897678  0.86387730    -0.02100
Br1429     Br  0.20738746  0.58542548  0.90681088    -0.00600
Br1430     Br  0.21039023  0.65059728  0.90504557    -0.00700
Br1431     Br  0.17348591  0.56723285  0.75980593    -0.00600
Br1432     Br  0.17268640  0.63068990  0.75931999    -0.00600
C1433       C  0.45045950  0.84880628  0.86415179    -0.01700
C1434       C  0.46809573  0.85754585  0.83357992     0.07900
C1435       C  0.45937297  0.86726088  0.80376010    -0.01900
C1436       C  0.43285494  0.86805179  0.80441928    -0.01900
C1437       C  0.41460408  0.85813896  0.83442526     0.08100
C1438       C  0.42332635  0.84842798  0.86426181    -0.02100
Br1439     Br  0.39790952  0.83423428  0.90497457    -0.00600
Br1440     Br  0.46373418  0.83787112  0.90596471    -0.00700
Br1441     Br  0.42188460  0.88354554  0.76471937    -0.00600
Br1442     Br  0.48423265  0.88025892  0.76243820    -0.00600
C1443       C  0.29295911  0.78393331  0.97337856    -0.01700
C1444       C  0.30161139  0.80315578  0.50252905     0.07900
C1445       C  0.28400189  0.79506879  0.53312343    -0.01900
C1446       C  0.25715412  0.76809616  0.53406199    -0.01900
C1447       C  0.24796025  0.74948423  0.50429407     0.08100
C1448       C  0.26601627  0.75717064  0.97417021    -0.02100
Br1449     Br  0.25400138  0.73069275  0.93426368    -0.00600
Br1450     Br  0.31845001  0.79385027  0.93284600    -0.00700
Br1451     Br  0.23302099  0.75651806  0.57597486    -0.00600
Br1452     Br  0.29681018  0.82092264  0.57364970    -0.00600
C1453       C  0.36227919  0.93223545  0.69888153    -0.01700
C1454       C  0.35889537  0.91682311  0.66713244     0.07900
C1455       C  0.35570885  0.92833625  0.63494101    -0.01900
C1456       C  0.35527916  0.95494945  0.63459746    -0.01900
C1457       C  0.35874666  0.97039769  0.66632160     0.08100
C1458       C  0.36233692  0.95911332  0.69846322    -0.02100
Br1459     Br  0.36801712  0.48056137  0.74036959    -0.00600
Br1460     Br  0.36793510  0.91709896  0.74277960    -0.00700
Br1461     Br  0.34874425  0.96962120  0.59081158    -0.00600
Br1462     Br  0.35142601  0.90746150  0.59127570    -0.00600
C1463       C  0.09200593  0.68547522  0.69689461    -0.01700
C1464       C  0.08102810  0.69052513  0.66537328     0.07900
C1465       C  0.09668339  0.69521359  0.63358277    -0.01900
C1466       C  0.12363809  0.69530545  0.63342912    -0.01900
C1467       C  0.13487894  0.69080690  0.66510169     0.08100
C1468       C  0.11886706  0.68539366  0.69670150    -0.02100
Br1469     Br  0.13323270  0.67680322  0.73939757    -0.00600
Br1470     Br  0.07007235  0.67827090  0.74020958    -0.00700
Br1471     Br  0.14536404  0.70204306  0.58995951    -0.00600
Br1472     Br  0.08165205  0.70242057  0.59047611    -0.00600
C1473       C  0.52279601  0.76170643  0.97735004    -0.01700
C1474       C  0.03007068  0.75203242  0.00835884     0.07900
C1475       C  0.03662602  0.76875456  0.53962219    -0.01900
C1476       C  0.03621566  0.79544280  0.53969489    -0.01900
C1477       C  0.02922351  0.80520223  0.00850968     0.08100
C1478       C  0.52234249  0.78826364  0.97743304    -0.02100
Br1479     Br  0.51139232  0.80102115  0.93515522    -0.00600
Br1480     Br  0.51255288  0.73807722  0.93493630    -0.00700
Br1481     Br  0.04558842  0.81881952  0.58218043    -0.00600
Br1482     Br  0.04648403  0.75524987  0.58203301    -0.00600
C1483       C  0.28401408  0.01678438  0.53297136    -0.01700
C1484       C  0.30141568  0.52563167  0.99936929     0.07900
C1485       C  0.29169693  0.53392227  0.96920681    -0.01900
C1486       C  0.26416015  0.53257340  0.96949461    -0.01900
C1487       C  0.24703831  0.52413775  0.00044727     0.08100
C1488       C  0.25669565  0.01597836  0.53364404    -0.02100
Br1489     Br  0.23361915  0.00553755  0.57639272    -0.00600
Br1490     Br  0.29833284  0.00672561  0.57457321    -0.00700
Br1491     Br  0.24996524  0.54249755  0.92764557    -0.00600
Br1492     Br  0.31660525  0.54807875  0.92801157    -0.00600
C1493       C  0.46263734  0.61662675  0.79752990    -0.01700
C1494       C  0.47083461  0.63554211  0.82698794     0.07900
C1495       C  0.45216651  0.62767130  0.85658753    -0.01900
C1496       C  0.42564847  0.60045529  0.85717490    -0.01900
C1497       C  0.41746059  0.58147996  0.82779224     0.08100
C1498       C  0.43571682  0.58969998  0.79776479    -0.02100
Br1499     Br  0.42368955  0.56414604  0.75700901    -0.00600
Br1500     Br  0.98835606  0.62756076  0.75708750    -0.00700
Br1501     Br  0.40024895  0.58929880  0.89797458    -0.00600
Br1502     Br  0.46261692  0.65463541  0.89586566    -0.00600
C1503       C  0.09377373  0.93039343  0.69640259    -0.01700
C1504       C  0.08271536  0.91528462  0.66426652     0.07900
C1505       C  0.09863659  0.92676374  0.63278884    -0.01900
C1506       C  0.12555136  0.95359447  0.63338385    -0.01900
C1507       C  0.13634509  0.96899240  0.66540536     0.08100
C1508       C  0.12069422  0.95721565  0.69701714    -0.02100
Br1509     Br  0.13375504  0.47949050  0.73961745    -0.00600
Br1510     Br  0.07158777  0.91474865  0.73943099    -0.00700
Br1511     Br  0.14826528  0.96864595  0.59060678    -0.00600
Br1512     Br  0.08393086  0.90540428  0.58902433    -0.00600
C1513       C  0.55516780  0.38682405  0.16244868     0.03200
C1514       C  0.52998076  0.38563689  0.14833933    -0.12900
C1515       C  0.00265631  0.35918841  0.14828123     0.00700
C1516       C  0.00078226  0.33381253  0.16428735    -0.11400
C1517       C  0.52632992  0.33517734  0.17943426     0.03200
C1518       C  0.55348516  0.36173240  0.17728423    -0.10900
H1519       H  0.53212720  0.40546931  0.13656053     0.08800
H1520       H  0.97971477  0.31335471  0.16511438     0.06400
H1521       H  0.57339995  0.36360293  0.18871339     0.06200
C1522       C  0.66422237  0.49761567  0.16542646     0.03200
C1523       C  0.68930938  0.99943142  0.18115611    -0.12900
C1524       C  0.71603530  0.02642425  0.18253604     0.00700
C1525       C  0.71766385  0.05146419  0.16597323    -0.11400
C1526       C  0.69228219  0.04922384  0.14925134     0.03200
C1527       C  0.66554319  0.02218355  0.15039168    -0.10900
H1528       H  0.68717958  0.47998696  0.19341146     0.08800
H1529       H  0.73834501  0.07233949  0.16607094     0.06400
H1530       H  0.64572254  0.01977633  0.13801575     0.06200
C1531       C  0.49884892  0.16361221  0.32773025     0.03200
C1532       C  0.52337699  0.16590461  0.34525416    -0.12900
C1533       C  0.54987280  0.19311983  0.34807076     0.00700
C1534       C  0.55160381  0.21827346  0.33146660    -0.11400
C1535       C  0.52671682  0.21588406  0.31312397     0.03200
C1536       C  0.50047118  0.18837298  0.31200358    -0.10900
H1537       H  0.52114714  0.14633244  0.35787002     0.08800
H1538       H  0.57194387  0.23940885  0.33293121     0.06400
H1539       H  0.98109156  0.18580325  0.29828430     0.06200
C1540       C  0.88872152  0.05336424  0.32845861     0.03200
C1541       C  0.88670584  0.02863420  0.34493960    -0.12900
C1542       C  0.85994665  0.50218762  0.34711384     0.00700
C1543       C  0.83452445  0.50070705  0.33137037    -0.11400
C1544       C  0.83604590  0.02588020  0.31502730     0.03200
C1545       C  0.86359310  0.05203819  0.31394763    -0.10900
H1546       H  0.90652143  0.03058978  0.35677305     0.08800
H1547       H  0.81335380  0.48038843  0.33262807     0.06400
H1548       H  0.86592782  0.07154050  0.30101347     0.06200
O1549       O  0.81476901  0.05234419  0.21447867    -0.74300
O1550       O  0.76096649  0.04978935  0.28552341    -0.74300
O1551       O  0.81373903  0.04991445  0.28508822    -0.74400
O1552       O  0.76186897  0.05217258  0.21488348    -0.74500
O1553       O  0.73764470  0.00296540  0.21458968    -0.74400
O1554       O  0.78967493  0.50063354  0.28414824    -0.74400
O1555       O  0.73625361  0.00058188  0.28511707    -0.74300
O1556       O  0.78992617  0.00313732  0.21422236    -0.74400
Ni1557     Ni  0.78871094  0.05281684  0.25018371     1.25400
Ni1558     Ni  0.76241109  0.00013293  0.24958778     1.25400
C1559       C  0.81183340  0.02775717  0.20379334     0.87900
C1560       C  0.73887745  0.02509710  0.29555762     0.87800
C1561       C  0.81129211  0.02526906  0.29486624     0.87800
C1562       C  0.74021901  0.02750733  0.20428107     0.88000
O1563       O  0.00069106  0.28934827  0.21141430    -0.74300
O1564       O  0.50271165  0.23763775  0.28177458    -0.74300
O1565       O  0.50226382  0.28984099  0.28207949    -0.74400
O1566       O  0.00084466  0.23675186  0.21131899    -0.74500
O1567       O  0.55021616  0.26132906  0.21192982    -0.74400
O1568       O  0.55160628  0.31502721  0.28233902    -0.74400
O1569       O  0.55206453  0.26239774  0.28247082    -0.74300
O1570       O  0.55003761  0.31362756  0.21158632    -0.74400
Ni1571     Ni  0.99989953  0.26254940  0.24673977     1.25400
Ni1572     Ni  0.55273419  0.28901025  0.24698077     1.25400
C1573       C  0.52541724  0.31103648  0.20107123     0.87900
C1574       C  0.52740637  0.24033352  0.29227444     0.87800
C1575       C  0.52678224  0.31188178  0.29271855     0.87800
C1576       C  0.52552405  0.23932676  0.20154673     0.88000
C1577       C  0.82926963  0.02541255  0.50076817     0.03200
C1578       C  0.83099637  0.00224075  0.48506602    -0.12900
C1579       C  0.85810912  0.00270002  0.48281448     0.00700
C1580       C  0.88365980  0.02676133  0.99811037    -0.11400
C1581       C  0.88179468  0.05017166  0.01462096     0.03200
C1582       C  0.85445522  0.04931371  0.01501041    -0.10900
H1583       H  0.81166754  0.48509065  0.47118661     0.08800
H1584       H  0.90466854  0.02724413  0.99723600     0.06400
H1585       H  0.85224041  0.06675839  0.02755549     0.06200
C1586       C  0.71788548  0.02238552  0.50346119     0.03200
C1587       C  0.69294692  0.99923443  0.48786522    -0.12900
C1588       C  0.66658471  0.00013332  0.48473402     0.00700
C1589       C  0.66513803  0.02426028  0.49982232    -0.11400
C1590       C  0.69041538  0.04750734  0.01661995     0.03200
C1591       C  0.71672904  0.04635704  0.01747204    -0.10900
H1592       H  0.69605136  0.48295433  0.47353766     0.08800
H1593       H  0.64480757  0.02506925  0.49825945     0.06400
H1594       H  0.73654001  0.06388048  0.02979864     0.06200
C1595       C  0.53043277  0.22399966  0.50851914     0.03200
C1596       C  0.50611871  0.19874876  0.02188862    -0.12900
C1597       C  0.50412728  0.17102483  0.01902178     0.00700
C1598       C  0.52692524  0.16893134  0.00122064    -0.11400
C1599       C  0.55141169  0.19455516  0.48686749     0.03200
C1600       C  0.55315601  0.22200604  0.49182420    -0.10900
H1601       H  0.98885679  0.20101379  0.03491977     0.08800
H1602       H  0.52541357  0.14760479  0.99818415     0.06400
H1603       H  0.57137642  0.24195063  0.48081764     0.06200
C1604       C  0.52884495  0.33305176  0.50652610     0.03200
C1605       C  0.55125252  0.35738611  0.48917151    -0.12900
C1606       C  0.54975374  0.38324232  0.48462348     0.00700
C1607       C  0.52570100  0.38486100  0.49979193    -0.11400
C1608       C  0.50313872  0.36028530  0.01813972     0.03200
C1609       C  0.50493052  0.33441745  0.02066485    -0.10900
H1610       H  0.56921500  0.35536369  0.47775392     0.08800
H1611       H  0.52442373  0.40482518  0.49714274     0.06400
H1612       H  0.98795610  0.31518933  0.03433178     0.06200
C1613       C  0.55285894  0.18954862  0.16791826     0.03200
C1614       C  0.52744243  0.16629049  0.15310681    -0.12900
C1615       C  0.00126589  0.16757413  0.15023346     0.00700
C1616       C  0.00041402  0.19205960  0.16495924    -0.11400
C1617       C  0.52598466  0.21527751  0.18121310     0.03200
C1618       C  0.55222833  0.21397742  0.18152256    -0.10900
H1619       H  0.52881257  0.14783298  0.14219139     0.08800
H1620       H  0.98019035  0.19308807  0.16369754     0.06400
H1621       H  0.57223455  0.23156268  0.19343394     0.06200
C1622       C  0.66317827  0.18995747  0.16813179     0.03200
C1623       C  0.66526800  0.16679774  0.15324250    -0.12900
C1624       C  0.69261211  0.16784933  0.15063430     0.00700
C1625       C  0.71801230  0.19208509  0.16596173    -0.11400
C1626       C  0.71569065  0.21523274  0.18257739     0.03200
C1627       C  0.68819949  0.21411215  0.18239132    -0.10900
H1628       H  0.64536065  0.14851085  0.14207352     0.08800
H1629       H  0.73918309  0.19291808  0.16498756     0.06400
H1630       H  0.68574000  0.23157050  0.19446942     0.06200
O1631       O  0.66828262  0.07049979  0.11726397    -0.74300
O1632       O  0.66602887  0.12255389  0.04774599    -0.74300
O1633       O  0.66548826  0.06937045  0.04681740    -0.74400
O1634       O  0.66876783  0.12284706  0.11822101    -0.74500
O1635       O  0.71811107  0.14777654  0.11766070    -0.74400
O1636       O  0.71485224  0.09382531  0.04656237    -0.74400
O1637       O  0.71538237  0.14659321  0.04714593    -0.74300
O1638       O  0.71764523  0.09487596  0.11709733    -0.74400
Ni1639     Ni  0.66540937  0.09547329  0.08256720     1.25400
Ni1640     Ni  0.71824948  0.12161890  0.08190948     1.25400
C1641       C  0.69298760  0.07318539  0.12757268     0.87900
C1642       C  0.69071659  0.14445575  0.03767356     0.87800
C1643       C  0.69000851  0.07175586  0.03667044     0.87800
C1644       C  0.69350457  0.14477827  0.12855559     0.88000
C1645       C  0.85855670  0.38793144  0.16682504     0.03200
C1646       C  0.88226947  0.38651982  0.15208832    -0.12900
C1647       C  0.88247817  0.35979054  0.15072261     0.00700
C1648       C  0.85889658  0.33439552  0.16671289    -0.11400
C1649       C  0.83517776  0.33596600  0.18290437     0.03200
C1650       C  0.83506736  0.36278671  0.18175043    -0.10900
H1651       H  0.90002263  0.40633923  0.14023892     0.08800
H1652       H  0.85899896  0.31372106  0.16654632     0.06400
H1653       H  0.81714627  0.36465433  0.19356205     0.06200
C1654       C  0.85783760  0.49763242  0.16439358     0.03200
C1655       C  0.88181275  0.02326476  0.15019794    -0.11100
C1656       C  0.88166067  0.05000875  0.14845949     0.00700
C1657       C  0.85828197  0.05197662  0.16502626    -0.11400
C1658       C  0.83504646  0.02688548  0.18192232     0.03200
C1659       C  0.83454378  0.49941439  0.17969374    -0.10900
H1660       H  0.89950593  0.02111164  0.13819744     0.08800
H1661       H  0.85818287  0.07265071  0.16480704     0.06400
H1662       H  0.81698288  0.47979053  0.19210409     0.06200
O1663       O  0.92806994  0.38366128  0.11900672    -0.74300
O1664       O  0.98162041  0.38575220  0.04801749    -0.74300
O1665       O  0.92866407  0.38603573  0.04844396    -0.74400
O1666       O  0.98052599  0.38340166  0.11841608    -0.74500
O1667       O  0.95582138  0.33418716  0.11804018    -0.74400
O1668       O  0.90415013  0.33682969  0.04802461    -0.74400
O1669       O  0.95661976  0.33653363  0.04772083    -0.74300
O1670       O  0.90302477  0.33445741  0.11854943    -0.74400
Ni1671     Ni  0.95558388  0.38645993  0.08357584     1.25400
Ni1672     Ni  0.92900620  0.33377925  0.08293400     1.25400
C1673       C  0.90596905  0.35905563  0.12919454     0.87900
C1674       C  0.97894092  0.36112145  0.03793947     0.87800
C1675       C  0.90663559  0.36147134  0.03821108     0.87800
C1676       C  0.97794293  0.35870129  0.12817235     0.88000
O1677       O  0.95706056  0.14826374  0.04747233    -0.74300
O1678       O  0.90231511  0.09593088  0.11665307    -0.74300
O1679       O  0.95553815  0.14820849  0.11788619    -0.74400
O1680       O  0.90401715  0.09595802  0.04598596    -0.74500
O1681       O  0.92825715  0.07091814  0.04532191    -0.74400
O1682       O  0.97937307  0.12277656  0.11734524    -0.74400
O1683       O  0.92669776  0.07104681  0.11585076    -0.74300
O1684       O  0.98153145  0.12344631  0.04698252    -0.74400
Ni1685     Ni  0.92884463  0.12296729  0.08183445     1.25400
Ni1686     Ni  0.95478602  0.09615062  0.08138632     1.25400
C1687       C  0.97936433  0.14583437  0.03774812     0.87900
C1688       C  0.90492724  0.07396181  0.12663261     0.87800
C1689       C  0.97702207  0.14478343  0.12821852     0.87800
C1690       C  0.90642280  0.07387297  0.03538844     0.88000
C1691       C  0.71963296  0.22212649  0.00552211     0.03200
C1692       C  0.71798940  0.19685400  0.01970372    -0.12900
C1693       C  0.69158439  0.16950260  0.01808407     0.00700
C1694       C  0.66667154  0.16783571  0.00073729    -0.11400
C1695       C  0.66850456  0.19350386  0.48555244     0.03200
C1696       C  0.69505062  0.22055016  0.48898171    -0.10900
H1697       H  0.73745299  0.19888894  0.03264341     0.08800
H1698       H  0.64624832  0.14680892  0.99880933     0.06400
H1699       H  0.69732040  0.24048696  0.47737402     0.06200
C1700       C  0.82932850  0.33249285  0.00374291     0.03200
C1701       C  0.85451165  0.33427980  0.01866432    -0.12900
C1702       C  0.88185487  0.36067822  0.01783150     0.00700
C1703       C  0.88366991  0.38554717  0.00049563    -0.11400
C1704       C  0.85811330  0.38365170  0.48452291     0.03200
C1705       C  0.83101953  0.35697322  0.48700166    -0.10900
H1706       H  0.85233394  0.31490447  0.03176828     0.08800
H1707       H  0.90470847  0.40601060  0.99926197     0.06400
H1708       H  0.81116592  0.35465763  0.47484029     0.06200
C1709       C  0.99618544  0.35640811  0.33482351     0.03200
C1710       C  0.49827548  0.33393222  0.31772890    -0.12900
C1711       C  0.52558775  0.33473894  0.31503656     0.00700
C1712       C  0.55095309  0.35846058  0.33112770    -0.11400
C1713       C  0.54867317  0.38114981  0.34890810     0.03200
C1714       C  0.52114385  0.37985080  0.34997525    -0.10900
H1715       H  0.97851505  0.31632354  0.30543109     0.08800
H1716       H  0.57211684  0.35930376  0.32975956     0.06400
H1717       H  0.51864959  0.39679916  0.36341282     0.06200
C1718       C  0.88632897  0.35693366  0.33655111     0.03200
C1719       C  0.88496057  0.38048949  0.35163777    -0.12900
C1720       C  0.85866313  0.38171932  0.35073086     0.00700
C1721       C  0.83350050  0.35878860  0.33333828    -0.11400
C1722       C  0.83496887  0.33491714  0.31752457     0.03200
C1723       C  0.86154656  0.33426327  0.31994478    -0.10900
H1724       H  0.90456316  0.39763982  0.36471978     0.08800
H1725       H  0.81314642  0.35956607  0.33204181     0.06400
H1726       H  0.86360907  0.31661537  0.30773571     0.06200
O1727       O  0.83456264  0.40490549  0.45107782    -0.74300
O1728       O  0.83383502  0.45647219  0.37941679    -0.74300
O1729       O  0.83331388  0.40337890  0.38045452    -0.74400
O1730       O  0.83489012  0.45751162  0.45003551    -0.74500
O1731       O  0.88423981  0.48223442  0.45079442    -0.74400
O1732       O  0.88266645  0.42775559  0.38152790    -0.74400
O1733       O  0.88317010  0.48049461  0.38019158    -0.74300
O1734       O  0.88390063  0.42927322  0.45213613    -0.74400
Ni1735     Ni  0.83241266  0.42971757  0.41530910     1.25400
Ni1736     Ni  0.88523362  0.45579783  0.41607617     1.25400
C1737       C  0.85907961  0.40755550  0.46220065     0.87900
C1738       C  0.85872027  0.47807971  0.36926400     0.87800
C1739       C  0.85800452  0.40575586  0.37104797     0.87800
C1740       C  0.85947950  0.47956711  0.46050960     0.88000
C1741       C  0.69054428  0.05323850  0.33256839     0.03200
C1742       C  0.66760096  0.02824599  0.34826035    -0.12900
C1743       C  0.66861368  0.50196263  0.34922849     0.00700
C1744       C  0.69249913  0.50058975  0.33317984    -0.11400
C1745       C  0.71502173  0.02558936  0.31663930     0.03200
C1746       C  0.71412900  0.05200331  0.31716564    -0.10900
H1747       H  0.64986276  0.03013623  0.36057404     0.08800
H1748       H  0.69277120  0.48000147  0.33311297     0.06400
H1749       H  0.73139837  0.07173442  0.30460578     0.06200
C1750       C  0.69088572  0.16330772  0.33158230     0.03200
C1751       C  0.71420988  0.18801155  0.31578857    -0.12900
C1752       C  0.71506323  0.21531099  0.31567046     0.00700
C1753       C  0.69204918  0.21754856  0.33284791    -0.11400
C1754       C  0.66846441  0.19247974  0.34938756     0.03200
C1755       C  0.66813889  0.16546685  0.34791529    -0.10900
H1756       H  0.73136066  0.18552601  0.30282231     0.08800
H1757       H  0.69251490  0.23850026  0.33338267     0.06400
H1758       H  0.65061843  0.14595683  0.36055418     0.06200
O1759       O  0.62285746  0.16818702  0.45272216    -0.74300
O1760       O  0.57097105  0.16979382  0.38200881    -0.74300
O1761       O  0.62328562  0.16938575  0.38199624    -0.74400
O1762       O  0.57037914  0.16865903  0.45290099    -0.74500
O1763       O  0.59550987  0.21784502  0.45222371    -0.74400
O1764       O  0.64842198  0.21857063  0.38118487    -0.74400
O1765       O  0.59561242  0.21896587  0.38120867    -0.74300
O1766       O  0.64770648  0.21737503  0.45199456    -0.74400
Ni1767     Ni  0.59597778  0.16729230  0.41728919     1.25400
Ni1768     Ni  0.62267809  0.21993912  0.41670890     1.25400
C1769       C  0.64476929  0.19280882  0.46298868     0.87900
C1770       C  0.57375132  0.19426176  0.37092909     0.87800
C1771       C  0.64534734  0.19375754  0.37118813     0.87800
C1772       C  0.57375161  0.19344455  0.46346777     0.88000
O1773       O  0.59521087  0.40246870  0.37977007    -0.74300
O1774       O  0.64611949  0.45602658  0.45083226    -0.74300
O1775       O  0.59406410  0.40371665  0.45045724    -0.74400
O1776       O  0.64793226  0.45559372  0.38023199    -0.74500
O1777       O  0.62264636  0.47957341  0.38015805    -0.74400
O1778       O  0.56903007  0.42794937  0.45060842    -0.74400
O1779       O  0.62153417  0.48071818  0.45075452    -0.74300
O1780       O  0.57037685  0.42691852  0.37991862    -0.74400
Ni1781     Ni  0.62170579  0.42858226  0.41537009     1.25400
Ni1782     Ni  0.59499802  0.45462741  0.41517594     1.25400
C1783       C  0.57315855  0.40498900  0.36964734     0.87900
C1784       C  0.64325468  0.47782949  0.46138080     0.87800
C1785       C  0.57224054  0.40651697  0.46134137     0.87800
C1786       C  0.64498293  0.47734220  0.37007913     0.88000
O1787       O  0.73604874  0.26167459  0.28484565    -0.74300
O1788       O  0.78947779  0.31372307  0.21447181    -0.74300
O1789       O  0.73713022  0.26092813  0.21422157    -0.74400
O1790       O  0.78894074  0.31470009  0.28515085    -0.74500
O1791       O  0.81334817  0.28984994  0.28487897    -0.74400
O1792       O  0.76216937  0.23669471  0.21355000    -0.74400
O1793       O  0.81481257  0.28979495  0.21423347    -0.74300
O1794       O  0.76087322  0.23722943  0.28412085    -0.74400
Ni1795     Ni  0.76202152  0.28862293  0.24957528     1.25400
Ni1796     Ni  0.78869079  0.26255725  0.24928717     1.25400
C1797       C  0.73877061  0.23972318  0.29463924     0.87900
C1798       C  0.81173668  0.31148018  0.20410663     0.87800
C1799       C  0.74002729  0.23912764  0.20359146     0.87800
C1800       C  0.81076444  0.31180508  0.29548499     0.88000
C1801       C  0.70054243  0.12676511  0.36182637    -0.01700
C1802       C  0.69057106  0.13501064  0.33180689     0.07900
C1803       C  0.67999799  0.11615750  0.30227931    -0.01900
C1804       C  0.67988736  0.08923299  0.30255473    -0.01900
C1805       C  0.69002517  0.08109837  0.33251300     0.08100
C1806       C  0.69997175  0.09963927  0.36232416    -0.02100
Br1807     Br  0.71281565  0.08781778  0.40376072    -0.00600
Br1808     Br  0.71547027  0.15291345  0.40196932    -0.00700
Br1809     Br  0.66549492  0.06323269  0.26220932    -0.00600
Br1810     Br  0.66535046  0.12709429  0.26174758    -0.00600
C1811       C  0.94957065  0.34594343  0.36533418    -0.01700
C1812       C  0.96795890  0.35630224  0.33546326     0.07900
C1813       C  0.95998364  0.36756330  0.30647335    -0.01900
C1814       C  0.93346993  0.36832399  0.30725156    -0.01900
C1815       C  0.91445300  0.35679436  0.33644371     0.08100
C1816       C  0.92238218  0.34545698  0.36542380    -0.02100
Br1817     Br  0.89588130  0.32902075  0.40491721    -0.00600
Br1818     Br  0.96201836  0.33319261  0.40630806    -0.00700
Br1819     Br  0.92343347  0.38576671  0.26876457    -0.00600
Br1820     Br  0.98579594  0.38256554  0.26610139    -0.00600
C1821       C  0.79242724  0.28566824  0.47474514    -0.01700
C1822       C  0.80123391  0.30424429  0.00452531     0.07900
C1823       C  0.78383524  0.29539741  0.03530799    -0.01900
C1824       C  0.75716039  0.26822045  0.03593110    -0.01900
C1825       C  0.74795610  0.25012223  0.00570263     0.08100
C1826       C  0.76572199  0.25866683  0.47527849    -0.02100
Br1827     Br  0.75368362  0.23301931  0.43457926    -0.00600
Br1828     Br  0.81739706  0.29682928  0.43360024    -0.00700
Br1829     Br  0.73317600  0.25573956  0.07796923    -0.00600
Br1830     Br  0.79657560  0.32055582  0.07643633    -0.00600
C1831       C  0.86190540  0.43166587  0.19785515    -0.01700
C1832       C  0.85826573  0.41597123  0.16626835     0.07900
C1833       C  0.85459088  0.42712770  0.13405770    -0.01900
C1834       C  0.85412594  0.45374266  0.13351290    -0.01900
C1835       C  0.85796902  0.46953172  0.16505192     0.08100
C1836       C  0.86187567  0.45850958  0.19723383    -0.02100
Br1837     Br  0.86819182  0.98086911  0.24181036    -0.00600
Br1838     Br  0.86800550  0.41694660  0.24182526    -0.00700
Br1839     Br  0.84706233  0.46798133  0.08973286    -0.00600
Br1840     Br  0.84967317  0.40574205  0.09066585    -0.00600
C1841       C  0.59228486  0.18523542  0.19989527    -0.01700
C1842       C  0.58066350  0.18879461  0.16797888     0.07900
C1843       C  0.59565711  0.19188850  0.13599689    -0.01900
C1844       C  0.62257826  0.19192380  0.13601001    -0.01900
C1845       C  0.63455514  0.18906725  0.16805490     0.08100
C1846       C  0.61920412  0.18523306  0.19990240    -0.02100
Br1847     Br  0.63452753  0.17891367  0.24330167    -0.00600
Br1848     Br  0.57108407  0.17982664  0.24348594    -0.00700
Br1849     Br  0.64332139  0.19655643  0.09215544    -0.00600
Br1850     Br  0.57991135  0.19722369  0.09228137    -0.00600
C1851       C  0.02380684  0.26177072  0.47699105    -0.01700
C1852       C  0.53049930  0.25214868  0.50846844     0.07900
C1853       C  0.53658225  0.26898247  0.03956818    -0.01900
C1854       C  0.53603977  0.29560324  0.03909629    -0.01900
C1855       C  0.52941331  0.30522142  0.50752419     0.08100
C1856       C  0.02326142  0.28828733  0.47651654    -0.02100
Br1857     Br  0.01324683  0.30099175  0.43351258    -0.00600
Br1858     Br  0.01454449  0.23814443  0.43464242    -0.00700
Br1859     Br  0.54488765  0.31914896  0.08136760    -0.00600
Br1860     Br  0.54612107  0.25577998  0.08246733    -0.00600
C1861       C  0.78410557  0.51679098  0.03018218    -0.01700
C1862       C  0.80083871  0.02480655  0.50176333     0.07900
C1863       C  0.79048774  0.03200589  0.47127129    -0.01900
C1864       C  0.76281065  0.03033493  0.47162930    -0.01900
C1865       C  0.74610115  0.02259054  0.50289716     0.08100
C1866       C  0.75703879  0.51646990  0.03088739    -0.02100
Br1867     Br  0.73355671  0.50536792  0.07332501    -0.00600
Br1868     Br  0.79738150  0.50486766  0.07116620    -0.00700
Br1869     Br  0.74790567  0.03898092  0.42941764    -0.00600
Br1870     Br  0.81479905  0.04528524  0.42950707    -0.00600
C1871       C  0.96104843  0.11787154  0.29682571    -0.01700
C1872       C  0.97067453  0.13536192  0.32756783     0.07900
C1873       C  0.95324460  0.12615949  0.35829095    -0.01900
C1874       C  0.92657976  0.09906785  0.35862224    -0.01900
C1875       C  0.91703645  0.08145246  0.32801328     0.08100
C1876       C  0.93398348  0.09105676  0.29691308    -0.02100
Br1877     Br  0.92002687  0.06754442  0.25450682    -0.00600
Br1878     Br  0.48516166  0.13044635  0.25488407    -0.00700
Br1879     Br  0.90255784  0.08648377  0.40066750    -0.00600
Br1880     Br  0.96540467  0.15125425  0.39952046    -0.00600
C1881       C  0.59333661  0.43072208  0.19508831    -0.01700
C1882       C  0.58328583  0.41498395  0.16316756     0.07900
C1883       C  0.59984908  0.42620177  0.13204798    -0.01900
C1884       C  0.62649371  0.45330365  0.13282839    -0.01900
C1885       C  0.63642090  0.46915598  0.16469495     0.08100
C1886       C  0.62000369  0.45778223  0.19589814    -0.02100
Br1887     Br  0.63584205  0.97794917  0.24110339    -0.00600
Br1888     Br  0.57009804  0.41559164  0.23748855    -0.00700
Br1889     Br  0.64988300  0.46827320  0.09052353    -0.00600
Br1890     Br  0.58631280  0.40420789  0.08854364    -0.00600
C1891       C  0.55516690  0.38682396  0.66244892     0.03200
C1892       C  0.52997991  0.38563641  0.64833886    -0.12900
C1893       C  0.00265594  0.35918779  0.64828043     0.00700
C1894       C  0.00078197  0.33381195  0.66428662    -0.11400
C1895       C  0.52632944  0.33517713  0.67943415     0.03200
C1896       C  0.55348444  0.36173249  0.67728473    -0.10900
H1897       H  0.53212625  0.40546872  0.63655988     0.08800
H1898       H  0.97971454  0.31335402  0.66511347     0.06400
H1899       H  0.57339923  0.36360335  0.68871447     0.06200
C1900       C  0.66422134  0.49761557  0.66542736     0.03200
C1901       C  0.68930765  0.99943104  0.68115811    -0.12900
C1902       C  0.71603395  0.02642355  0.68253688     0.00700
C1903       C  0.71766285  0.05146336  0.66597322    -0.11400
C1904       C  0.69228128  0.04922310  0.64925112     0.03200
C1905       C  0.66554220  0.02218291  0.65039153    -0.10900
H1906       H  0.68717828  0.47998689  0.69341290     0.08800
H1907       H  0.73834411  0.07233841  0.66607042     0.06400
H1908       H  0.64572168  0.01977557  0.63801487     0.06200
C1909       C  0.49884933  0.16361339  0.82773274     0.03200
C1910       C  0.52337748  0.16590583  0.84525652    -0.12900
C1911       C  0.54987357  0.19312092  0.84807219     0.00700
C1912       C  0.55160470  0.21827440  0.83146736    -0.11400
C1913       C  0.52671755  0.21588492  0.81312493     0.03200
C1914       C  0.50047173  0.18837399  0.81200547    -0.10900
H1915       H  0.52114756  0.14633380  0.85787280     0.08800
H1916       H  0.57194488  0.23940961  0.83293126     0.06400
H1917       H  0.98109150  0.18580444  0.79828691     0.06200
C1918       C  0.88872158  0.05336505  0.82845912     0.03200
C1919       C  0.88670605  0.02863504  0.84494009    -0.12900
C1920       C  0.85994709  0.50218794  0.84711330     0.00700
C1921       C  0.83452495  0.50070720  0.83136942    -0.11400
C1922       C  0.83604620  0.02588033  0.81502643     0.03200
C1923       C  0.86359319  0.05203860  0.81394744    -0.10900
H1924       H  0.90652158  0.03059087  0.85677407     0.08800
H1925       H  0.81335429  0.48038847  0.83262708     0.06400
H1926       H  0.86592779  0.07154092  0.80101332     0.06200
O1927       O  0.81476819  0.05234322  0.71447716    -0.74300
O1928       O  0.76096687  0.04978936  0.78552295    -0.74300
O1929       O  0.81373927  0.04991425  0.78508677    -0.74400
O1930       O  0.76186826  0.05217187  0.71488304    -0.74500
O1931       O  0.73764372  0.00296468  0.71458993    -0.74400
O1932       O  0.78967520  0.50063340  0.78414729    -0.74400
O1933       O  0.73625388  0.00058190  0.78511734    -0.74300
O1934       O  0.78992520  0.00313635  0.71422143    -0.74400
Ni1935     Ni  0.78871072  0.05281636  0.75018270     1.25400
Ni1936     Ni  0.76241072  0.00013245  0.74958748     1.25400
C1937       C  0.81183236  0.02775607  0.70379194     0.87900
C1938       C  0.73887796  0.02509725  0.79555775     0.87800
C1939       C  0.81129239  0.02526895  0.79486509     0.87800
C1940       C  0.74021797  0.02750659  0.70428127     0.88000
O1941       O  0.00069091  0.28934802  0.71141420    -0.74300
O1942       O  0.50271220  0.23763812  0.78177489    -0.74300
O1943       O  0.50226412  0.28984120  0.78207953    -0.74400
O1944       O  0.00084442  0.23675153  0.71131971    -0.74500
O1945       O  0.55021615  0.26132904  0.71192956    -0.74400
O1946       O  0.55160658  0.31502750  0.78233868    -0.74400
O1947       O  0.55206508  0.26239816  0.78247067    -0.74300
O1948       O  0.55003743  0.31362751  0.71158594    -0.74400
Ni1949     Ni  0.99989959  0.26254957  0.74674011     1.25400
Ni1950     Ni  0.55273435  0.28901041  0.74698045     1.25400
C1951       C  0.52541696  0.31103632  0.70107106     0.87900
C1952       C  0.52740701  0.24033406  0.79227473     0.87800
C1953       C  0.52678256  0.31188202  0.79271847     0.87800
C1954       C  0.52552400  0.23932666  0.70154665     0.88000
C1955       C  0.82926990  0.02541259  0.00076858     0.03200
C1956       C  0.83099672  0.00224095  0.98506615    -0.12900
C1957       C  0.85810950  0.00270031  0.98281447     0.00700
C1958       C  0.88365946  0.02676110  0.49811020    -0.11400
C1959       C  0.88179447  0.05017159  0.51462053     0.03200
C1960       C  0.85445502  0.04931370  0.51500990    -0.10900
H1961       H  0.81166803  0.48509108  0.97118668     0.08800
H1962       H  0.90466818  0.02724382  0.49723591     0.06400
H1963       H  0.85224029  0.06675854  0.52755486     0.06200
C1964       C  0.71788589  0.02238559  0.00346216     0.03200
C1965       C  0.69294728  0.99923451  0.98786631    -0.12900
C1966       C  0.66658523  0.00013362  0.98473482     0.00700
C1967       C  0.66513869  0.02426074  0.99982286    -0.11400
C1968       C  0.69041468  0.04750692  0.51661944     0.03200
C1969       C  0.71672845  0.04635681  0.51747132    -0.10900
H1970       H  0.69605145  0.48295366  0.97353924     0.08800
H1971       H  0.64480836  0.02506986  0.99825979     0.06400
H1972       H  0.73653937  0.06388024  0.52979798     0.06200
C1973       C  0.53043239  0.22399996  0.00851946     0.03200
C1974       C  0.50611899  0.19874858  0.52188843    -0.12900
C1975       C  0.50412725  0.17102450  0.51902154     0.00700
C1976       C  0.52692496  0.16893072  0.50122017    -0.11400
C1977       C  0.55141188  0.19455593  0.98686802     0.03200
C1978       C  0.55315579  0.22200664  0.99182453    -0.10900
H1979       H  0.98885768  0.20101394  0.53492038     0.08800
H1980       H  0.52541298  0.14760403  0.49818352     0.06400
H1981       H  0.57137615  0.24195136  0.98081801     0.06200
C1982       C  0.52884571  0.33305258  0.00652814     0.03200
C1983       C  0.55125323  0.35738674  0.98917326    -0.12900
C1984       C  0.54975444  0.38324290  0.98462484     0.00700
C1985       C  0.52570181  0.38486179  0.99979331    -0.11400
C1986       C  0.50313783  0.36028432  0.51813800     0.03200
C1987       C  0.50492962  0.33441644  0.52066274    -0.10900
H1988       H  0.56921555  0.35536413  0.97775561     0.08800
H1989       H  0.52442451  0.40482595  0.99714378     0.06400
H1990       H  0.98795532  0.31518825  0.53432964     0.06200
C1991       C  0.55285899  0.18954878  0.66791732     0.03200
C1992       C  0.52744248  0.16629063  0.65310583    -0.12900
C1993       C  0.00126542  0.16757351  0.65023394     0.00700
C1994       C  0.00041354  0.19205897  0.66495981    -0.11400
C1995       C  0.52598455  0.21527742  0.68121278     0.03200
C1996       C  0.55222830  0.21397747  0.68152188    -0.10900
H1997       H  0.52881267  0.14783325  0.64219024     0.08800
H1998       H  0.98018981  0.19308736  0.66369827     0.06400
H1999       H  0.57223450  0.23156270  0.69343328     0.06200
C2000       C  0.66317824  0.18995727  0.66813224     0.03200
C2001       C  0.66526788  0.16679754  0.65324277    -0.12900
C2002       C  0.69261188  0.16784892  0.65063461     0.00700
C2003       C  0.71801212  0.19208451  0.66596234    -0.11400
C2004       C  0.71569059  0.21523217  0.68257823     0.03200
C2005       C  0.68819948  0.21411173  0.68239211    -0.10900
H2006       H  0.64536048  0.14851079  0.64207353     0.08800
H2007       H  0.73918286  0.19291738  0.66498816     0.06400
H2008       H  0.68574006  0.23157007  0.69447029     0.06200
O2009       O  0.66828192  0.07049929  0.61726383    -0.74300
O2010       O  0.66602822  0.12255338  0.54774579    -0.74300
O2011       O  0.66548751  0.06936991  0.54681725    -0.74400
O2012       O  0.66876737  0.12284674  0.61822094    -0.74500
O2013       O  0.71811061  0.14777598  0.61766068    -0.74400
O2014       O  0.71485148  0.09382480  0.54656206    -0.74400
O2015       O  0.71538170  0.14659272  0.54714580    -0.74300
O2016       O  0.71764452  0.09487524  0.61709702    -0.74400
Ni2017     Ni  0.66540873  0.09547284  0.58256708     1.25400
Ni2018     Ni  0.71824883  0.12161833  0.58190929     1.25400
C2019       C  0.69298686  0.07318471  0.62757240     0.87900
C2020       C  0.69071593  0.14445516  0.53767320     0.87800
C2021       C  0.69000775  0.07175535  0.53667014     0.87800
C2022       C  0.69350418  0.14477784  0.62855563     0.88000
C2023       C  0.85855614  0.38793078  0.66682358     0.03200
C2024       C  0.88226901  0.38651915  0.65208713    -0.12900
C2025       C  0.88247785  0.35978993  0.65072177     0.00700
C2026       C  0.85889640  0.33439500  0.66671239    -0.11400
C2027       C  0.83517755  0.33596549  0.68290377     0.03200
C2028       C  0.83506690  0.36278608  0.68174925    -0.10900
H2029       H  0.90002217  0.40633856  0.64023753     0.08800
H2030       H  0.85899894  0.31372064  0.66654616     0.06400
H2031       H  0.81714574  0.36465364  0.69356064     0.06200
C2032       C  0.85783579  0.49763133  0.66439039     0.03200
C2033       C  0.88181114  0.02326338  0.65019541    -0.11100
C2034       C  0.88165941  0.05000756  0.64845772     0.00700
C2035       C  0.85828078  0.05197542  0.66502468    -0.11400
C2036       C  0.83504511  0.02688419  0.68192044     0.03200
C2037       C  0.83454196  0.49941333  0.67969056    -0.10900
H2038       H  0.89950430  0.02111026  0.63819475     0.08800
H2039       H  0.85818194  0.07264966  0.66480601     0.06400
H2040       H  0.81698085  0.47978938  0.69210048     0.06200
O2041       O  0.92806956  0.38366052  0.61900571    -0.74300
O2042       O  0.98161980  0.38575123  0.54801631    -0.74300
O2043       O  0.92866347  0.38603464  0.54844291    -0.74400
O2044       O  0.98052562  0.38340090  0.61841495    -0.74500
O2045       O  0.95582103  0.33418640  0.61803933    -0.74400
O2046       O  0.90414959  0.33682860  0.54802378    -0.74400
O2047       O  0.95661927  0.33653266  0.54771991    -0.74300
O2048       O  0.90302439  0.33445666  0.61854866    -0.74400
Ni2049     Ni  0.95558338  0.38645903  0.58357474     1.25400
Ni2050     Ni  0.92900576  0.33377835  0.58293317     1.25400
C2051       C  0.90596869  0.35905491  0.62919367     0.87900
C2052       C  0.97894032  0.36112048  0.53793831     0.87800
C2053       C  0.90663503  0.36147020  0.53821005     0.87800
C2054       C  0.97794258  0.35870057  0.62817139     0.88000
O2055       O  0.95706082  0.14826374  0.54747255    -0.74300
O2056       O  0.90231454  0.09593030  0.61665238    -0.74300
O2057       O  0.95553775  0.14820793  0.61788643    -0.74400
O2058       O  0.90401719  0.09595807  0.54598537    -0.74500
O2059       O  0.92825697  0.07091798  0.54532149    -0.74400
O2060       O  0.97937264  0.12277597  0.61734545    -0.74400
O2061       O  0.92669715  0.07104619  0.61585023    -0.74300
O2062       O  0.98153145  0.12344605  0.54698268    -0.74400
Ni2063     Ni  0.92884449  0.12296704  0.58183425     1.25400
Ni2064     Ni  0.95478572  0.09615022  0.58138619     1.25400
C2065       C  0.97936454  0.14583425  0.53774838     0.87900
C2066       C  0.90492644  0.07396103  0.62663168     0.87800
C2067       C  0.97702163  0.14478282  0.62821885     0.87800
C2068       C  0.90642269  0.07387292  0.53538794     0.88000
C2069       C  0.71963249  0.22212533  0.50551952     0.03200
C2070       C  0.71798886  0.19685305  0.51970188    -0.12900
C2071       C  0.69158371  0.16950173  0.51808301     0.00700
C2072       C  0.66667080  0.16783469  0.50073618    -0.11400
C2073       C  0.66850521  0.19350506  0.98555426     0.03200
C2074       C  0.69505113  0.22055143  0.98898427    -0.10900
H2075       H  0.73745249  0.19888811  0.53264160     0.08800
H2076       H  0.64624744  0.14680795  0.49880879     0.06400
H2077       H  0.69732085  0.24048833  0.97737704     0.06200
C2078       C  0.82932830  0.33249135  0.50374038     0.03200
C2079       C  0.85451140  0.33427831  0.51866196    -0.12900
C2080       C  0.88185444  0.36067699  0.51783011     0.00700
C2081       C  0.88366935  0.38554612  0.50049491    -0.11400
C2082       C  0.85811379  0.38365276  0.98452380     0.03200
C2083       C  0.83101986  0.35697452  0.98700348    -0.10900
H2084       H  0.85233376  0.31490283  0.53176546     0.08800
H2085       H  0.90470782  0.40600981  0.49926197     0.06400
H2086       H  0.81116618  0.35465890  0.97484214     0.06200
C2087       C  0.99618628  0.35640918  0.83482328     0.03200
C2088       C  0.49827574  0.33393216  0.81772961    -0.12900
C2089       C  0.52558809  0.33473906  0.81503681     0.00700
C2090       C  0.55095345  0.35846064  0.83112800    -0.11400
C2091       C  0.54867348  0.38114965  0.84890893     0.03200
C2092       C  0.52114407  0.37985042  0.84997662    -0.10900
H2093       H  0.97851582  0.31632489  0.80543028     0.08800
H2094       H  0.57211726  0.35930397  0.82975950     0.06400
H2095       H  0.51864979  0.39679864  0.86341463     0.06200
C2096       C  0.88632948  0.35693405  0.83655151     0.03200
C2097       C  0.88496100  0.38048985  0.85163812    -0.12900
C2098       C  0.85866354  0.38171965  0.85073100     0.00700
C2099       C  0.83350101  0.35878891  0.83333832    -0.11400
C2100       C  0.83496945  0.33491748  0.81752464     0.03200
C2101       C  0.86154716  0.33426365  0.81994505    -0.10900
H2102       H  0.90456348  0.39764016  0.86472014     0.08800
H2103       H  0.81314684  0.35956637  0.83204171     0.06400
H2104       H  0.86360977  0.31661579  0.80773598     0.06200
O2105       O  0.83456316  0.40490617  0.95107789    -0.74300
O2106       O  0.83383548  0.45647262  0.87941651    -0.74300
O2107       O  0.83331429  0.40337930  0.88045454    -0.74400
O2108       O  0.83489068  0.45751227  0.95003525    -0.74500
O2109       O  0.88424036  0.48223505  0.95079414    -0.74400
O2110       O  0.88266686  0.42775602  0.88152785    -0.74400
O2111       O  0.88317056  0.48049506  0.88019128    -0.74300
O2112       O  0.88390114  0.42927386  0.95213613    -0.74400
Ni2113     Ni  0.83241315  0.42971811  0.91530898     1.25400
Ni2114     Ni  0.88523411  0.45579836  0.91607599     1.25400
C2115       C  0.85908012  0.40755626  0.96220089     0.87900
C2116       C  0.85872073  0.47808012  0.86926364     0.87800
C2117       C  0.85800493  0.40575624  0.87104799     0.87800
C2118       C  0.85948006  0.47956774  0.96050936     0.88000
C2119       C  0.69054584  0.05323935  0.83257025     0.03200
C2120       C  0.66760241  0.02824682  0.84826202    -0.12900
C2121       C  0.66861441  0.50196259  0.84922938     0.00700
C2122       C  0.69249978  0.50058975  0.83318047    -0.11400
C2123       C  0.71502264  0.02558979  0.81664004     0.03200
C2124       C  0.71413032  0.05200397  0.81716702    -0.10900
H2125       H  0.64986437  0.03013716  0.86057599     0.08800
H2126       H  0.69277172  0.48000137  0.83311323     0.06400
H2127       H  0.73139973  0.07173505  0.80460726     0.06200
C2128       C  0.69088717  0.16330862  0.83158524     0.03200
C2129       C  0.71421114  0.18801226  0.81579097    -0.12900
C2130       C  0.71506436  0.21531163  0.81567220     0.00700
C2131       C  0.69205038  0.21754937  0.83284960    -0.11400
C2132       C  0.66846577  0.19248077  0.84938975     0.03200
C2133       C  0.66814040  0.16546791  0.84791819    -0.10900
H2134       H  0.73136185  0.18552658  0.80282464     0.08800
H2135       H  0.69251596  0.23850103  0.83338380     0.06400
H2136       H  0.65062006  0.14595807  0.86055737     0.06200
O2137       O  0.62285828  0.16818827  0.95272367    -0.74300
O2138       O  0.57097207  0.16979497  0.88200995    -0.74300
O2139       O  0.62328671  0.16938693  0.88199782    -0.74400
O2140       O  0.57037989  0.16866011  0.95290204    -0.74500
O2141       O  0.59551044  0.21784610  0.95222480    -0.74400
O2142       O  0.64842312  0.21857180  0.88118651    -0.74400
O2143       O  0.59561343  0.21896702  0.88120976    -0.74300
O2144       O  0.64770723  0.21737628  0.95199622    -0.74400
Ni2145     Ni  0.59597871  0.16729348  0.91729051     1.25400
Ni2146     Ni  0.62267896  0.21994029  0.91671026     1.25400
C2147       C  0.64477005  0.19281007  0.96299033     0.87900
C2148       C  0.57375229  0.19426290  0.87093025     0.87800
C2149       C  0.64534855  0.19375869  0.87118991     0.87800
C2150       C  0.57375214  0.19344555  0.96346869     0.88000
O2151       O  0.59521125  0.40246854  0.87977080    -0.74300
O2152       O  0.64611990  0.45602642  0.95083296    -0.74300
O2153       O  0.59406447  0.40371668  0.95045803    -0.74400
O2154       O  0.64793277  0.45559353  0.88023269    -0.74500
O2155       O  0.62264693  0.47957325  0.88015858    -0.74400
O2156       O  0.56903060  0.42794957  0.95060911    -0.74400
O2157       O  0.62153473  0.48071817  0.95075503    -0.74300
O2158       O  0.57037730  0.42691844  0.87991928    -0.74400
Ni2159     Ni  0.62170620  0.42858212  0.91537081     1.25400
Ni2160     Ni  0.59499855  0.45462740  0.91517651     1.25400
C2161       C  0.57315894  0.40498886  0.86964807     0.87900
C2162       C  0.64325511  0.47782935  0.96138147     0.87800
C2163       C  0.57224107  0.40651722  0.96134227     0.87800
C2164       C  0.64498352  0.47734204  0.87007980     0.88000
O2165       O  0.73604939  0.26167475  0.78484643    -0.74300
O2166       O  0.78947785  0.31372273  0.71447181    -0.74300
O2167       O  0.73713032  0.26092768  0.71422229    -0.74400
O2168       O  0.78894129  0.31470026  0.78515090    -0.74500
O2169       O  0.81334884  0.28985023  0.78487902    -0.74400
O2170       O  0.76216949  0.23669429  0.71355073    -0.74400
O2171       O  0.81481269  0.28979468  0.71423344    -0.74300
O2172       O  0.76087393  0.23722965  0.78412168    -0.74400
Ni2173     Ni  0.76202186  0.28862280  0.74957566     1.25400
Ni2174     Ni  0.78869120  0.26255721  0.74928756     1.25400
C2175       C  0.73877143  0.23972350  0.79464029     0.87900
C2176       C  0.81173669  0.31147982  0.70410646     0.87800
C2177       C  0.74002732  0.23912714  0.70359226     0.87800
C2178       C  0.81076506  0.31180535  0.79548501     0.88000
C2179       C  0.70054296  0.12676537  0.86182946    -0.01700
C2180       C  0.69057235  0.13501144  0.83180975     0.07900
C2181       C  0.68000009  0.11615883  0.80228165    -0.01900
C2182       C  0.67988968  0.08923443  0.80255669    -0.01900
C2183       C  0.69002683  0.08109930  0.83251513     0.08100
C2184       C  0.69997244  0.09963959  0.86232689    -0.02100
Br2185     Br  0.71281527  0.08781737  0.90376375    -0.00600
Br2186     Br  0.71546958  0.15291293  0.90197321    -0.00700
Br2187     Br  0.66549832  0.06323492  0.76221053    -0.00600
Br2188     Br  0.66535315  0.12709610  0.76174975    -0.00600
C2189       C  0.94957091  0.34594307  0.86533360    -0.01700
C2190       C  0.96795977  0.35630337  0.83546330     0.07900
C2191       C  0.95998508  0.36756585  0.80647432    -0.01900
C2192       C  0.93347127  0.36832634  0.80725274    -0.01900
C2193       C  0.91445364  0.35679502  0.83644406     0.08100
C2194       C  0.92238233  0.34545638  0.86542332    -0.02100
Br2195     Br  0.89588069  0.32901830  0.90491578    -0.00600
Br2196     Br  0.96201801  0.33319070  0.90630661    -0.00700
Br2197     Br  0.92343554  0.38577096  0.76876718    -0.00600
Br2198     Br  0.98579820  0.38257018  0.76610333    -0.00600
C2199       C  0.79242768  0.28566953  0.97474796    -0.01700
C2200       C  0.80123369  0.30424283  0.50452265     0.07900
C2201       C  0.78383499  0.29539605  0.53530530    -0.01900
C2202       C  0.75716001  0.26821923  0.53592835    -0.01900
C2203       C  0.74795559  0.25012108  0.50569983     0.08100
C2204       C  0.76572266  0.25866792  0.97528143    -0.02100
Br2205     Br  0.75368492  0.23301991  0.93458266    -0.00600
Br2206     Br  0.81739755  0.29683064  0.93360307    -0.00700
Br2207     Br  0.73317547  0.25573860  0.57796636    -0.00600
Br2208     Br  0.79657545  0.32055443  0.57643367    -0.00600
C2209       C  0.86190343  0.43166492  0.69785309    -0.01700
C2210       C  0.85826492  0.41597050  0.66626637     0.07900
C2211       C  0.85459094  0.42712713  0.63405534    -0.01900
C2212       C  0.85412559  0.45374191  0.63351010    -0.01900
C2213       C  0.85796743  0.46953068  0.66504907     0.08100
C2214       C  0.86187339  0.45850847  0.69723132    -0.02100
Br2215     Br  0.86819247  0.98086970  0.74180767    -0.00600
Br2216     Br  0.86800248  0.41694562  0.74182381    -0.00700
Br2217     Br  0.84706315  0.46798071  0.58972945    -0.00600
Br2218     Br  0.84967490  0.40574193  0.59066352    -0.00600
C2219       C  0.59228466  0.18523542  0.69989480    -0.01700
C2220       C  0.58066356  0.18879472  0.66797825     0.07900
C2221       C  0.59565748  0.19188876  0.63599647    -0.01900
C2222       C  0.62257867  0.19192409  0.63600997    -0.01900
C2223       C  0.63455522  0.18906732  0.66805501     0.08100
C2224       C  0.61920389  0.18523299  0.69990228    -0.02100
Br2225     Br  0.63452681  0.17891324  0.74330174    -0.00600
Br2226     Br  0.57108353  0.17982655  0.74348521    -0.00700
Br2227     Br  0.64332229  0.19655707  0.59215570    -0.00600
Br2228     Br  0.57991209  0.19722405  0.59228073    -0.00600
C2229       C  0.02380634  0.26177136  0.97699192    -0.01700
C2230       C  0.53049882  0.25214891  0.00846931     0.07900
C2231       C  0.53658222  0.26898231  0.53956718    -0.01900
C2232       C  0.53603926  0.29560284  0.53909489    -0.01900
C2233       C  0.52941366  0.30522205  0.00752588     0.08100
C2234       C  0.02326147  0.28828825  0.97651791    -0.02100
Br2235     Br  0.01324750  0.30099352  0.93351418    -0.00600
Br2236     Br  0.01454333  0.23814528  0.93464306    -0.00700
Br2237     Br  0.54488613  0.31914846  0.58136615    -0.00600
Br2238     Br  0.54612120  0.25578036  0.58246665    -0.00600
C2239       C  0.78410505  0.51679103  0.53018131    -0.01700
C2240       C  0.80083898  0.02480656  0.00176389     0.07900
C2241       C  0.79048794  0.03200586  0.97127191    -0.01900
C2242       C  0.76281085  0.03033487  0.97163005    -0.01900
C2243       C  0.74610147  0.02259050  0.00289799     0.08100
C2244       C  0.75703845  0.51647031  0.53088634    -0.02100
Br2245     Br  0.73355637  0.50536877  0.57332395    -0.00600
Br2246     Br  0.79738050  0.50486726  0.57116538    -0.00700
Br2247     Br  0.74790569  0.03898071  0.92941843    -0.00600
Br2248     Br  0.81479919  0.04528538  0.92950765    -0.00600
C2249       C  0.96104852  0.11787327  0.79682769    -0.01700
C2250       C  0.97067437  0.13536312  0.82757024     0.07900
C2251       C  0.95324413  0.12616020  0.85829309    -0.01900
C2252       C  0.92657926  0.09906853  0.85862370    -0.01900
C2253       C  0.91703631  0.08145355  0.82801438     0.08100
C2254       C  0.93398360  0.09105846  0.79691440    -0.02100
Br2255     Br  0.92002739  0.06754690  0.75450751    -0.00600
Br2256     Br  0.48516251  0.13044757  0.75488670    -0.00700
Br2257     Br  0.90255674  0.08648393  0.90066846    -0.00600
Br2258     Br  0.96540379  0.15125431  0.89952314    -0.00600
C2259       C  0.59333463  0.43072278  0.69508841    -0.01700
C2260       C  0.58328473  0.41498403  0.66316796     0.07900
C2261       C  0.59984878  0.42620127  0.63204880    -0.01900
C2262       C  0.62649348  0.45330306  0.63282943    -0.01900
C2263       C  0.63641983  0.46915596  0.66469571     0.08100
C2264       C  0.62000172  0.45778292  0.69589842    -0.02100
Br2265     Br  0.63583566  0.97795340  0.74110251    -0.00600
Br2266     Br  0.57009489  0.41559314  0.73748793    -0.00700
Br2267     Br  0.64988402  0.46827174  0.59052535    -0.00600
Br2268     Br  0.58631341  0.40420682  0.58854477    -0.00600
C2269       C  0.55445317  0.88727464  0.16373537     0.03200
C2270       C  0.52925239  0.88621746  0.14984812    -0.12900
C2271       C  0.00199906  0.85969473  0.14932105     0.00700
C2272       C  0.00012835  0.83419344  0.16495267    -0.11400
C2273       C  0.52566126  0.83546219  0.17995284     0.03200
C2274       C  0.55279482  0.86202998  0.17801797    -0.10900
H2275       H  0.53137998  0.90614500  0.13838520     0.08800
H2276       H  0.97910097  0.81368035  0.16548597     0.06400
H2277       H  0.57274532  0.86377496  0.18916553     0.06200
C2278       C  0.66420056  0.99742615  0.16578717     0.03200
C2279       C  0.68918370  0.49963131  0.18125357    -0.12900
C2280       C  0.71592913  0.52661027  0.18277890     0.00700
C2281       C  0.71762503  0.55170402  0.16621921    -0.11400
C2282       C  0.69232644  0.54949188  0.14926234     0.03200
C2283       C  0.66564119  0.52238050  0.14999507    -0.10900
H2284       H  0.68740423  0.97979787  0.19322551     0.08800
H2285       H  0.73829395  0.57258926  0.16647516     0.06400
H2286       H  0.64591549  0.51993259  0.13730794     0.06200
C2287       C  0.49896320  0.66375881  0.32707764     0.03200
C2288       C  0.52345541  0.66605260  0.34464004    -0.12900
C2289       C  0.54995699  0.69326177  0.34741070     0.00700
C2290       C  0.55165664  0.71842901  0.33087236    -0.11400
C2291       C  0.52673591  0.71602692  0.31258771     0.03200
C2292       C  0.50054000  0.68848313  0.31135545    -0.10900
H2293       H  0.52119740  0.64648505  0.35730042     0.08800
H2294       H  0.57197551  0.73958077  0.33237896     0.06400
H2295       H  0.98115075  0.68587087  0.29761644     0.06200
C2296       C  0.88919228  0.55339589  0.32821109     0.03200
C2297       C  0.88721372  0.52868900  0.34466536    -0.12900
C2298       C  0.85936260  0.00225638  0.34779949     0.00700
C2299       C  0.83391359  0.00083626  0.33225198    -0.11400
C2300       C  0.83661950  0.52577456  0.31423257     0.03200
C2301       C  0.86412938  0.55199465  0.31338314    -0.10900
H2302       H  0.90698715  0.53072139  0.35671967     0.08800
H2303       H  0.81269982  0.98058065  0.33370355     0.06400
H2304       H  0.86648420  0.57149822  0.30043134     0.06200
O2305       O  0.81470236  0.55198351  0.21370470    -0.74300
O2306       O  0.76170099  0.55003290  0.28547526    -0.74300
O2307       O  0.81431808  0.54984604  0.28431865    -0.74400
O2308       O  0.76198035  0.55220122  0.21481222    -0.74500
O2309       O  0.73749379  0.50299639  0.21475077    -0.74400
O2310       O  0.78927235  0.00069792  0.28471684    -0.74400
O2311       O  0.73680880  0.50082726  0.28529576    -0.74300
O2312       O  0.78963066  0.50277860  0.21363739    -0.74400
Ni2313     Ni  0.78905978  0.55277533  0.24975435     1.25400
Ni2314     Ni  0.76252901  0.50009577  0.24938970     1.25400
C2315       C  0.81154512  0.52730522  0.20301105     0.87900
C2316       C  0.73963654  0.52541954  0.29575626     0.87800
C2317       C  0.81183314  0.52518853  0.29411450     0.87800
C2318       C  0.74014035  0.52757536  0.20443001     0.88000
O2319       O  0.00012036  0.78944686  0.21156276    -0.74300
O2320       O  0.50254936  0.73777845  0.28165093    -0.74300
O2321       O  0.50197484  0.78995330  0.28216424    -0.74400
O2322       O  0.00037450  0.73687857  0.21118458    -0.74500
O2323       O  0.54974356  0.76158576  0.21153061    -0.74400
O2324       O  0.55131942  0.81518827  0.28219198    -0.74400
O2325       O  0.55190506  0.76259952  0.28206876    -0.74300
O2326       O  0.54947059  0.81378478  0.21151518    -0.74400
Ni2327     Ni  0.99952158  0.76265361  0.24675374     1.25400
Ni2328     Ni  0.55235815  0.78919562  0.24672737     1.25400
C2329       C  0.52480505  0.81119477  0.20121896     0.87900
C2330       C  0.52730584  0.74049939  0.29193715     0.87800
C2331       C  0.52651725  0.81207702  0.29260848     0.87800
C2332       C  0.52505086  0.73957664  0.20115318     0.88000
C2333       C  0.82978367  0.52613319  0.49859357     0.03200
C2334       C  0.83152639  0.50294213  0.48302311    -0.12900
C2335       C  0.85854565  0.50315302  0.48149098     0.00700
C2336       C  0.88396678  0.52700324  0.99724052    -0.11400
C2337       C  0.88205791  0.55042589  0.01360017     0.03200
C2338       C  0.85483566  0.54981202  0.01335678    -0.10900
H2339       H  0.81104526  0.98424554  0.47358039     0.08800
H2340       H  0.90488429  0.52728131  0.99688808     0.06400
H2341       H  0.85257079  0.56724721  0.02584615     0.06200
C2342       C  0.71879681  0.52386594  0.50100105     0.03200
C2343       C  0.69388955  0.50063362  0.48549496    -0.12900
C2344       C  0.66716772  0.50094438  0.48345307     0.00700
C2345       C  0.66544396  0.52467914  0.49925298    -0.11400
C2346       C  0.69073968  0.54804567  0.01587927     0.03200
C2347       C  0.71735210  0.54743647  0.01578507    -0.10900
H2348       H  0.69490956  0.98126730  0.47643857     0.08800
H2349       H  0.64485866  0.52504574  0.49846117     0.06400
H2350       H  0.73714930  0.56499492  0.02809120     0.06200
C2351       C  0.52992778  0.72385586  0.50786174     0.03200
C2352       C  0.50573431  0.69862903  0.02141658    -0.12900
C2353       C  0.50375356  0.67092706  0.01849222     0.00700
C2354       C  0.52647771  0.66882215  0.00050188    -0.11400
C2355       C  0.55086402  0.69442778  0.48594996     0.03200
C2356       C  0.55251673  0.72185903  0.49079584    -0.10900
H2357       H  0.98858312  0.70091119  0.03471639     0.08800
H2358       H  0.52501536  0.64751224  0.99753794     0.06400
H2359       H  0.57064367  0.74179371  0.47964468     0.06200
C2360       C  0.52893728  0.83315180  0.50792531     0.03200
C2361       C  0.55127894  0.85738735  0.49036648    -0.12900
C2362       C  0.54965592  0.88313772  0.48547766     0.00700
C2363       C  0.52559280  0.88478161  0.50053832    -0.11400
C2364       C  0.50312868  0.86031054  0.01909635     0.03200
C2365       C  0.50503694  0.83454075  0.02201326    -0.10900
H2366       H  0.56919587  0.85530387  0.47891718     0.08800
H2367       H  0.52419543  0.90465764  0.49758050     0.06400
H2368       H  0.98808023  0.81535492  0.03576335     0.06200
C2369       C  0.55307470  0.69093552  0.16557984     0.03200
C2370       C  0.52771749  0.66748086  0.15098078    -0.12900
C2371       C  0.00112073  0.66806500  0.14924325     0.00700
C2372       C  0.99996796  0.69224129  0.16450945    -0.11400
C2373       C  0.52559157  0.71574387  0.18037894     0.03200
C2374       C  0.55212491  0.71499473  0.17980845    -0.10900
H2375       H  0.52937021  0.64933917  0.13955074     0.08800
H2376       H  0.97947050  0.69278508  0.16400603     0.06400
H2377       H  0.57213697  0.73269575  0.19156712     0.06200
C2378       C  0.66340084  0.69155190  0.16515371     0.03200
C2379       C  0.66537657  0.66832150  0.15029365    -0.12900
C2380       C  0.69245346  0.66870542  0.14906997     0.00700
C2381       C  0.71772566  0.69261635  0.16506898    -0.11400
C2382       C  0.71552244  0.71596808  0.18130858     0.03200
C2383       C  0.68827152  0.71531433  0.18021431    -0.10900
H2384       H  0.64559847  0.65036350  0.13844690     0.08800
H2385       H  0.73868787  0.69298978  0.16499225     0.06400
H2386       H  0.68582295  0.73278732  0.19227012     0.06200
O2387       O  0.66831901  0.57078508  0.11733230    -0.74300
O2388       O  0.66580670  0.62234566  0.04733337    -0.74300
O2389       O  0.66556227  0.56934533  0.04681762    -0.74400
O2390       O  0.66859117  0.62311507  0.11776191    -0.74500
O2391       O  0.71794071  0.64808871  0.11722380    -0.74400
O2392       O  0.71492330  0.59397394  0.04659574    -0.74400
O2393       O  0.71516190  0.64650133  0.04677650    -0.74300
O2394       O  0.71767888  0.59522456  0.11716506    -0.74400
Ni2395     Ni  0.66533239  0.59552802  0.08239681     1.25400
Ni2396     Ni  0.71817329  0.62179121  0.08176535     1.25400
C2397       C  0.69303954  0.57350880  0.12765075     0.87900
C2398       C  0.69046246  0.64423683  0.03719445     0.87800
C2399       C  0.69014141  0.57191930  0.03655278     0.87800
C2400       C  0.69331908  0.64522408  0.12782277     0.88000
C2401       C  0.85887556  0.88866342  0.16746854     0.03200
C2402       C  0.88250463  0.88711497  0.15275031    -0.12900
C2403       C  0.88224301  0.86018861  0.15070751     0.00700
C2404       C  0.85837917  0.83475379  0.16620558    -0.11400
C2405       C  0.83479183  0.83648031  0.18248485     0.03200
C2406       C  0.83506453  0.86348821  0.18187286    -0.10900
H2407       H  0.90052020  0.90699561  0.14134232     0.08800
H2408       H  0.85816325  0.81392395  0.16560242     0.06400
H2409       H  0.81720945  0.86545335  0.19371521     0.06200
C2410       C  0.85861052  0.99845579  0.16585132     0.03200
C2411       C  0.88107025  0.52246190  0.14871667    -0.11100
C2412       C  0.88113229  0.54934937  0.14740029     0.00700
C2413       C  0.85784283  0.55135149  0.16411597    -0.11400
C2414       C  0.83454000  0.52625444  0.18088646     0.03200
C2415       C  0.83521426  0.00013276  0.18095955    -0.10900
H2416       H  0.89869248  0.52028890  0.13654591     0.08800
H2417       H  0.85790773  0.57210925  0.16418879     0.06400
H2418       H  0.81766361  0.98047622  0.19332837     0.06200
O2419       O  0.92763792  0.88391794  0.11871900    -0.74300
O2420       O  0.98137695  0.88579200  0.04828602    -0.74300
O2421       O  0.92835145  0.88586258  0.04809372    -0.74400
O2422       O  0.98009504  0.88379791  0.11869889    -0.74500
O2423       O  0.95538823  0.83458032  0.11876324    -0.74400
O2424       O  0.90404693  0.83666094  0.04797551    -0.74400
O2425       O  0.95655082  0.83656763  0.04845037    -0.74300
O2426       O  0.90260715  0.83471193  0.11854921    -0.74400
Ni2427     Ni  0.95521851  0.88659510  0.08353445     1.25400
Ni2428     Ni  0.92874853  0.83390738  0.08329424     1.25400
C2429       C  0.90558134  0.85935278  0.12905051     0.87900
C2430       C  0.97883047  0.86114355  0.03857295     0.87800
C2431       C  0.90649679  0.86119685  0.03779203     0.87800
C2432       C  0.97744255  0.85915436  0.12883996     0.88000
O2433       O  0.95678456  0.64819513  0.04717531    -0.74300
O2434       O  0.90193905  0.59553536  0.11609300    -0.74300
O2435       O  0.95504948  0.64807714  0.11755246    -0.74400
O2436       O  0.90392831  0.59588474  0.04546494    -0.74500
O2437       O  0.92823792  0.57091146  0.04489539    -0.74400
O2438       O  0.97911414  0.62286765  0.11706683    -0.74400
O2439       O  0.92651059  0.57083588  0.11540261    -0.74300
O2440       O  0.98136261  0.62348203  0.04670697    -0.74400
Ni2441     Ni  0.92852706  0.62278657  0.08143674     1.25400
Ni2442     Ni  0.95463600  0.59613305  0.08106331     1.25400
C2443       C  0.97909962  0.64579554  0.03740454     0.87900
C2444       C  0.90457053  0.57354275  0.12597019     0.87800
C2445       C  0.97669867  0.64489102  0.12776773     0.87800
C2446       C  0.90646319  0.57390524  0.03478934     0.88000
C2447       C  0.71949974  0.72168261  0.00445895     0.03200
C2448       C  0.71778913  0.69642655  0.01870591    -0.12900
C2449       C  0.69128470  0.66917617  0.01743619     0.00700
C2450       C  0.66630323  0.66758131  0.00034228    -0.11400
C2451       C  0.66819587  0.69326205  0.48509289     0.03200
C2452       C  0.69488188  0.72022759  0.48818245    -0.10900
H2453       H  0.73731514  0.69841934  0.03143034     0.08800
H2454       H  0.64578959  0.64661596  0.99866667     0.06400
H2455       H  0.69722565  0.74016356  0.47648353     0.06200
C2456       C  0.82966815  0.83139286  0.00142083     0.03200
C2457       C  0.85485282  0.83340213  0.01661409    -0.12900
C2458       C  0.88188752  0.86014272  0.01676591     0.00700
C2459       C  0.88343693  0.88508593  0.99995147    -0.11400
C2460       C  0.85790039  0.88295829  0.48364217     0.03200
C2461       C  0.83108211  0.85593250  0.48517841    -0.10900
H2462       H  0.85282191  0.81398168  0.02943500     0.08800
H2463       H  0.90423390  0.90583652  0.99950810     0.06400
H2464       H  0.81122052  0.85349563  0.47289696     0.06200
C2465       C  0.99628432  0.85752069  0.33309399     0.03200
C2466       C  0.49825432  0.83481081  0.31641512    -0.12900
C2467       C  0.52537669  0.83514513  0.31456859     0.00700
C2468       C  0.55065500  0.85861001  0.33111858    -0.11400
C2469       C  0.54849328  0.88150139  0.34856252     0.03200
C2470       C  0.52119928  0.88073683  0.34865571    -0.10900
H2471       H  0.97855174  0.81734037  0.30385707     0.08800
H2472       H  0.57164689  0.85905622  0.33043395     0.06400
H2473       H  0.51879382  0.89784617  0.36180934     0.06200
C2474       C  0.88641891  0.85820102  0.33455103     0.03200
C2475       C  0.88483765  0.88146318  0.35017952    -0.12900
C2476       C  0.85831217  0.88229120  0.35001161     0.00700
C2477       C  0.83312188  0.85925890  0.33275119    -0.11400
C2478       C  0.83478875  0.83567347  0.31639597     0.03200
C2479       C  0.86161173  0.83543758  0.31807969    -0.10900
H2480       H  0.90444576  0.89864669  0.36321462     0.08800
H2481       H  0.81257933  0.85970503  0.33203147     0.06400
H2482       H  0.86378845  0.81797365  0.30553468     0.06200
O2483       O  0.83412802  0.90452045  0.45117669    -0.74300
O2484       O  0.83327098  0.95656346  0.38020711    -0.74300
O2485       O  0.83282069  0.90349517  0.38054618    -0.74400
O2486       O  0.83439611  0.95719218  0.45090777    -0.74500
O2487       O  0.88374075  0.98195640  0.45156131    -0.74400
O2488       O  0.88216892  0.92796672  0.38156855    -0.74400
O2489       O  0.88260476  0.98062788  0.38092337    -0.74300
O2490       O  0.88347080  0.92900406  0.45215748    -0.74400
Ni2491     Ni  0.83190613  0.92959523  0.41579393     1.25400
Ni2492     Ni  0.88472327  0.95574845  0.41648221     1.25400
C2493       C  0.85869516  0.90711673  0.46202005     0.87900
C2494       C  0.85814211  0.97819332  0.37003637     0.87800
C2495       C  0.85753507  0.90602735  0.37091615     0.87800
C2496       C  0.85899306  0.97921490  0.46147044     0.88000
C2497       C  0.69168512  0.55386960  0.33315518     0.03200
C2498       C  0.66842140  0.52873747  0.34827888    -0.12900
C2499       C  0.66797114  0.00156979  0.34940725     0.00700
C2500       C  0.69180497  0.00020624  0.33317044    -0.11400
C2501       C  0.71597251  0.52604967  0.31709460     0.03200
C2502       C  0.71537819  0.55261174  0.31806752    -0.10900
H2503       H  0.65055943  0.53057718  0.36031733     0.08800
H2504       H  0.69227295  0.97971939  0.33337631     0.06400
H2505       H  0.73288504  0.57241397  0.30589687     0.06200
C2506       C  0.69164001  0.66388557  0.33196951     0.03200
C2507       C  0.71475331  0.68864953  0.31596960    -0.12900
C2508       C  0.71517851  0.71574407  0.31541685     0.00700
C2509       C  0.69202698  0.71778148  0.33250410    -0.11400
C2510       C  0.66867760  0.69269962  0.34929702     0.03200
C2511       C  0.66870857  0.66585228  0.34815107    -0.10900
H2512       H  0.73204567  0.68633660  0.30310634     0.08800
H2513       H  0.69218639  0.73858620  0.33274273     0.06400
H2514       H  0.65130308  0.64632944  0.36089982     0.06200
O2515       O  0.62250258  0.66804343  0.45234058    -0.74300
O2516       O  0.57102595  0.66987660  0.38124738    -0.74300
O2517       O  0.62333572  0.66943471  0.38163479    -0.74400
O2518       O  0.57000415  0.66857022  0.45212589    -0.74500
O2519       O  0.59517537  0.71775632  0.45166121    -0.74400
O2520       O  0.64840899  0.71862425  0.38096560    -0.74400
O2521       O  0.59562216  0.71905226  0.38068082    -0.74300
O2522       O  0.64738368  0.71723354  0.45175843    -0.74400
Ni2523     Ni  0.59581776  0.66726502  0.41671752     1.25400
Ni2524     Ni  0.62251472  0.71991328  0.41633471     1.25400
C2525       C  0.64442034  0.69263451  0.46266993     0.87900
C2526       C  0.57381482  0.69437111  0.37026094     0.87800
C2527       C  0.64542074  0.69384847  0.37095598     0.87800
C2528       C  0.57332059  0.69333779  0.46270585     0.88000
O2529       O  0.59475449  0.90230912  0.38005701    -0.74300
O2530       O  0.64575387  0.95556526  0.45135553    -0.74300
O2531       O  0.59368153  0.90334847  0.45083298    -0.74400
O2532       O  0.64752042  0.95532544  0.38066804    -0.74500
O2533       O  0.62229130  0.97936129  0.38086708    -0.74400
O2534       O  0.56873940  0.92767432  0.45124095    -0.74400
O2535       O  0.62123173  0.98031614  0.45152159    -0.74300
O2536       O  0.57001335  0.92684538  0.38048732    -0.74400
Ni2537     Ni  0.62129939  0.92826077  0.41576757     1.25400
Ni2538     Ni  0.59467500  0.95438814  0.41585485     1.25400
C2539       C  0.57279890  0.90499233  0.36990587     0.87900
C2540       C  0.64286389  0.97729240  0.46217461     0.87800
C2541       C  0.57196737  0.90624355  0.46192075     0.87800
C2542       C  0.64454119  0.97706763  0.37057508     0.88000
O2543       O  0.73570570  0.76196129  0.28424720    -0.74300
O2544       O  0.78899572  0.81420268  0.21385449    -0.74300
O2545       O  0.73673113  0.76136205  0.21355482    -0.74400
O2546       O  0.78850524  0.81512030  0.28450473    -0.74500
O2547       O  0.81310967  0.79046540  0.28398063    -0.74400
O2548       O  0.76175840  0.73712063  0.21284583    -0.74400
O2549       O  0.81428836  0.79022426  0.21338990    -0.74300
O2550       O  0.76075143  0.73774126  0.28345969    -0.74400
Ni2551     Ni  0.76158464  0.78901274  0.24895323     1.25400
Ni2552     Ni  0.78835622  0.76304802  0.24850937     1.25400
C2553       C  0.73862553  0.74013078  0.29409344     0.87900
C2554       C  0.81123397  0.81194729  0.20342374     0.87800
C2555       C  0.73967157  0.73961798  0.20280072     0.87800
C2556       C  0.81047133  0.81238503  0.29462731     0.88000
C2557       C  0.69884394  0.62611212  0.36336213    -0.01700
C2558       C  0.69157703  0.63567178  0.33221655     0.07900
C2559       C  0.68391891  0.61818114  0.30149977    -0.01900
C2560       C  0.68397108  0.59133112  0.30180199    -0.01900
C2561       C  0.69121394  0.58178996  0.33297267     0.08100
C2562       C  0.69827551  0.59897636  0.36387325    -0.02100
Br2563     Br  0.70738702  0.58542568  0.40680650    -0.00600
Br2564     Br  0.71039060  0.65059784  0.40504067    -0.00700
Br2565     Br  0.67348137  0.56723087  0.25980291    -0.00600
Br2566     Br  0.67268030  0.63068725  0.25931749    -0.00600
C2567       C  0.95045886  0.84880579  0.36415568    -0.01700
C2568       C  0.96809383  0.85754335  0.33358275     0.07900
C2569       C  0.95936959  0.86725603  0.30376207    -0.01900
C2570       C  0.93285128  0.86804641  0.30442139    -0.01900
C2571       C  0.91460181  0.85813586  0.33442868     0.08100
C2572       C  0.92332560  0.84842733  0.36426614    -0.02100
Br2573     Br  0.89791067  0.83423656  0.40498072    -0.00600
Br2574     Br  0.96373533  0.83787343  0.40596934    -0.00700
Br2575     Br  0.92187878  0.88353652  0.26471972    -0.00600
Br2576     Br  0.98422792  0.88025202  0.26243889    -0.00600
C2577       C  0.79295852  0.78393202  0.47337828    -0.01700
C2578       C  0.80161118  0.80315705  0.00253413     0.07900
C2579       C  0.78400112  0.79507035  0.03312804    -0.01900
C2580       C  0.75715342  0.76809759  0.03406648    -0.01900
C2581       C  0.74796022  0.74948528  0.00429891     0.08100
C2582       C  0.76601559  0.75716946  0.47416969    -0.02100
Br2583     Br  0.75400073  0.73069172  0.43426303    -0.00600
Br2584     Br  0.81844963  0.79384898  0.43284593    -0.00700
Br2585     Br  0.73301966  0.75651960  0.07597884    -0.00600
Br2586     Br  0.79680862  0.82092467  0.07365385    -0.00600
C2587       C  0.86228371  0.93223819  0.19888887    -0.01700
C2588       C  0.85889872  0.91682565  0.16713964     0.07900
C2589       C  0.85571083  0.92833842  0.13494868    -0.01900
C2590       C  0.85528115  0.95495157  0.13460570    -0.01900
C2591       C  0.85875034  0.97040029  0.16632983     0.08100
C2592       C  0.86234161  0.95911616  0.19847106    -0.02100
Br2593     Br  0.86801750  0.48056082  0.24037633    -0.00600
Br2594     Br  0.86794061  0.91710164  0.24278629    -0.00700
Br2595     Br  0.84874348  0.96962242  0.09082074    -0.00600
Br2596     Br  0.85142609  0.90746320  0.09128325    -0.00600
C2597       C  0.59200861  0.68548039  0.19689235    -0.01700
C2598       C  0.58102890  0.69052651  0.16537012     0.07900
C2599       C  0.59668216  0.69521093  0.13357872    -0.01900
C2600       C  0.62363683  0.69530274  0.13342505    -0.01900
C2601       C  0.63487975  0.69080831  0.16509851     0.08100
C2602       C  0.61886978  0.68539894  0.19669930    -0.02100
Br2603     Br  0.63323790  0.67681365  0.23939698    -0.00600
Br2604     Br  0.57007729  0.67828068  0.24020853    -0.00700
Br2605     Br  0.64535996  0.70203489  0.08995410    -0.00600
Br2606     Br  0.58164827  0.70241276  0.09047072    -0.00600
C2607       C  0.02279639  0.76170521  0.47734902    -0.01700
C2608       C  0.53007328  0.75203343  0.50836082     0.07900
C2609       C  0.53662695  0.76875625  0.03962282    -0.01900
C2610       C  0.53621661  0.79544448  0.03969568    -0.01900
C2611       C  0.52922456  0.80520236  0.50851060     0.08100
C2612       C  0.02234266  0.78826233  0.47743194    -0.02100
Br2613     Br  0.01139307  0.80101999  0.43515378    -0.00600
Br2614     Br  0.01255444  0.73807652  0.43493494    -0.00700
Br2615     Br  0.54558976  0.81882128  0.08218117    -0.00600
Br2616     Br  0.54648569  0.75525173  0.08203326    -0.00600
C2617       C  0.78401510  0.01678676  0.03297173    -0.01700
C2618       C  0.80141474  0.52563041  0.49936949     0.07900
C2619       C  0.79169730  0.53392259  0.46920716    -0.01900
C2620       C  0.76416086  0.53257450  0.46949423    -0.01900
C2621       C  0.74703797  0.52413795  0.50044607     0.08100
C2622       C  0.75669684  0.01598109  0.03364377    -0.02100
Br2623     Br  0.73362061  0.00554211  0.07639259    -0.00600
Br2624     Br  0.79833378  0.00672923  0.07457464    -0.00700
Br2625     Br  0.74996783  0.54250098  0.42764539    -0.00600
Br2626     Br  0.81660679  0.54807969  0.42801294    -0.00600
C2627       C  0.96263587  0.61662540  0.29753071    -0.01700
C2628       C  0.97083303  0.63554136  0.32698815     0.07900
C2629       C  0.95216477  0.62767129  0.35658752    -0.01900
C2630       C  0.92564688  0.60045521  0.35717550    -0.01900
C2631       C  0.91745923  0.58147922  0.32779352     0.08100
C2632       C  0.93571545  0.58969861  0.29776612    -0.02100
Br2633     Br  0.92368819  0.56414387  0.25701107    -0.00600
Br2634     Br  0.48835505  0.62756177  0.25708290    -0.00700
Br2635     Br  0.90024733  0.58929942  0.39797508    -0.00600
Br2636     Br  0.96261473  0.65463653  0.39586438    -0.00600
C2637       C  0.59377648  0.93039329  0.19639761    -0.01700
C2638       C  0.58271786  0.91528472  0.16426144     0.07900
C2639       C  0.59863898  0.92676400  0.13278371    -0.01900
C2640       C  0.62555390  0.95359464  0.13337881    -0.01900
C2641       C  0.63634788  0.96899226  0.16540047     0.08100
C2642       C  0.62069704  0.95721539  0.19701223    -0.02100
Br2643     Br  0.63375654  0.47948993  0.23961672    -0.00600
Br2644     Br  0.57159068  0.91474843  0.23942610    -0.00700
Br2645     Br  0.64826749  0.96864652  0.09060161    -0.00600
Br2646     Br  0.58393282  0.90540498  0.08901905    -0.00600
C2647       C  0.55445214  0.88727413  0.66373565     0.03200
C2648       C  0.52925152  0.88621652  0.64984726    -0.12900
C2649       C  0.00199862  0.85969355  0.64932005     0.00700
C2650       C  0.00012794  0.83419247  0.66495235    -0.11400
C2651       C  0.52566048  0.83546175  0.67995344     0.03200
C2652       C  0.55279386  0.86202981  0.67801923    -0.10900
H2653       H  0.53137914  0.90614384  0.63838363     0.08800
H2654       H  0.97910071  0.81367939  0.66548568     0.06400
H2655       H  0.57274419  0.86377522  0.68916776     0.06200
C2656       C  0.66419914  0.99742575  0.66578826     0.03200
C2657       C  0.68918256  0.49963111  0.68125469    -0.12900
C2658       C  0.71592819  0.52660993  0.68277947     0.00700
C2659       C  0.71762425  0.55170363  0.66621943    -0.11400
C2660       C  0.69232571  0.54949161  0.64926261     0.03200
C2661       C  0.66564036  0.52238033  0.64999554    -0.10900
H2662       H  0.68740211  0.97979763  0.69322866     0.08800
H2663       H  0.73829334  0.57258880  0.66647507     0.06400
H2664       H  0.64591470  0.51993243  0.63730823     0.06200
C2665       C  0.49896302  0.66375946  0.82708027     0.03200
C2666       C  0.52345543  0.66605327  0.84464220    -0.12900
C2667       C  0.54995719  0.69326238  0.84741216     0.00700
C2668       C  0.55165676  0.71842952  0.83087364    -0.11400
C2669       C  0.52673582  0.71602742  0.81258948     0.03200
C2670       C  0.50053975  0.68848373  0.81135800    -0.10900
H2671       H  0.52119754  0.64648579  0.85730256     0.08800
H2672       H  0.57197577  0.73958121  0.83237965     0.06400
H2673       H  0.98115147  0.68587094  0.79761720     0.06200
C2674       C  0.88919264  0.55339621  0.82821048     0.03200
C2675       C  0.88721409  0.52868943  0.84466502    -0.12900
C2676       C  0.85936302  0.00225689  0.84779925     0.00700
C2677       C  0.83391405  0.00083643  0.83225111    -0.11400
C2678       C  0.83661996  0.52577458  0.81423135     0.03200
C2679       C  0.86412980  0.55199476  0.81338200    -0.10900
H2680       H  0.90698746  0.53072197  0.85671971     0.08800
H2681       H  0.81270048  0.98058066  0.83370220     0.06400
H2682       H  0.86648461  0.57149822  0.80043001     0.06200
O2683       O  0.81470168  0.55198291  0.71370338    -0.74300
O2684       O  0.76170128  0.55003284  0.78547506    -0.74300
O2685       O  0.81431836  0.54984589  0.78431738    -0.74400
O2686       O  0.76197978  0.55220082  0.71481199    -0.74500
O2687       O  0.73749305  0.50299598  0.71475093    -0.74400
O2688       O  0.78927253  0.00069773  0.78471603    -0.74400
O2689       O  0.73680909  0.50082721  0.78529594    -0.74300
O2690       O  0.78962985  0.50277800  0.71363635    -0.74400
Ni2691     Ni  0.78905962  0.55277503  0.74975358     1.25400
Ni2692     Ni  0.76252876  0.50009547  0.74938931     1.25400
C2693       C  0.81154418  0.52730454  0.70300959     0.87900
C2694       C  0.73963696  0.52541954  0.79575646     0.87800
C2695       C  0.81183351  0.52518843  0.79411329     0.87800
C2696       C  0.74013958  0.52757494  0.70443017     0.88000
O2697       O  0.00012017  0.78944645  0.71156359    -0.74300
O2698       O  0.50254916  0.73777871  0.78165239    -0.74300
O2699       O  0.50197483  0.78995369  0.78216507    -0.74400
O2700       O  0.00037430  0.73687812  0.71118573    -0.74500
O2701       O  0.54974279  0.76158524  0.71153138    -0.74400
O2702       O  0.55131941  0.81518847  0.78219236    -0.74400
O2703       O  0.55190486  0.76259961  0.78206960    -0.74300
O2704       O  0.54946998  0.81378440  0.71151559    -0.74400
Ni2705     Ni  0.99952168  0.76265347  0.74675477     1.25400
Ni2706     Ni  0.55235775  0.78919544  0.74672794     1.25400
C2707       C  0.52480438  0.81119437  0.70121959     0.87900
C2708       C  0.52730568  0.74049968  0.79193847     0.87800
C2709       C  0.52651736  0.81207745  0.79260899     0.87800
C2710       C  0.52505002  0.73957603  0.70115426     0.88000
C2711       C  0.82978410  0.52613345  0.99859404     0.03200
C2712       C  0.83152690  0.50294256  0.98302324    -0.12900
C2713       C  0.85854619  0.50315355  0.98149092     0.00700
C2714       C  0.88396627  0.52700277  0.49724044    -0.11400
C2715       C  0.88205751  0.55042559  0.51359980     0.03200
C2716       C  0.85483529  0.54981181  0.51335624    -0.10900
H2717       H  0.81104560  0.98424575  0.97358040     0.08800
H2718       H  0.90488377  0.52728077  0.49688811     0.06400
H2719       H  0.85257051  0.56724713  0.52584539     0.06200
C2720       C  0.71879695  0.52386537  0.00100242     0.03200
C2721       C  0.69388970  0.50063308  0.98549633    -0.12900
C2722       C  0.66716804  0.50094411  0.98345393     0.00700
C2723       C  0.66544438  0.52467906  0.99925344    -0.11400
C2724       C  0.69073925  0.54804580  0.51587877     0.03200
C2725       C  0.71735182  0.54743684  0.51578407    -0.10900
H2726       H  0.69490982  0.98126722  0.97643982     0.08800
H2727       H  0.64485926  0.52504587  0.99846124     0.06400
H2728       H  0.73714902  0.56499530  0.52809024     0.06200
C2729       C  0.52992679  0.72385623  0.00786051     0.03200
C2730       C  0.50573526  0.69862880  0.52141806    -0.12900
C2731       C  0.50375404  0.67092665  0.51849322     0.00700
C2732       C  0.52647779  0.66882141  0.50050228    -0.11400
C2733       C  0.55086387  0.69442860  0.98594969     0.03200
C2734       C  0.55251609  0.72185969  0.99079500    -0.10900
H2735       H  0.98858425  0.70091128  0.53471728     0.08800
H2736       H  0.52501504  0.64751141  0.49753788     0.06400
H2737       H  0.57064301  0.74179442  0.97964402     0.06200
C2738       C  0.52893788  0.83315297  0.00792644     0.03200
C2739       C  0.55127964  0.85738847  0.99036769    -0.12900
C2740       C  0.54965667  0.88313884  0.98547867     0.00700
C2741       C  0.52559364  0.88478290  0.00053932    -0.11400
C2742       C  0.50312786  0.86030914  0.51909527     0.03200
C2743       C  0.50503626  0.83453943  0.52201211    -0.10900
H2744       H  0.56919649  0.85530486  0.97891837     0.08800
H2745       H  0.52419634  0.90465898  0.99758135     0.06400
H2746       H  0.98808027  0.81535391  0.53576320     0.06200
C2747       C  0.55307404  0.69093509  0.66558047     0.03200
C2748       C  0.52771678  0.66748026  0.65098163    -0.12900
C2749       C  0.00112066  0.66806499  0.64924272     0.00700
C2750       C  0.99996771  0.69224100  0.66450963    -0.11400
C2751       C  0.52559065  0.71574317  0.68037992     0.03200
C2752       C  0.55212411  0.71499427  0.67980902    -0.10900
H2753       H  0.52936954  0.64933857  0.63955165     0.08800
H2754       H  0.97947028  0.69278468  0.66400645     0.06400
H2755       H  0.57213620  0.73269543  0.69156747     0.06200
C2756       C  0.66340051  0.69155159  0.66515503     0.03200
C2757       C  0.66537611  0.66832110  0.65029495    -0.12900
C2758       C  0.69245298  0.66870500  0.64907084     0.00700
C2759       C  0.71772530  0.69261585  0.66506984    -0.11400
C2760       C  0.71552224  0.71596759  0.68130965     0.03200
C2761       C  0.68827136  0.71531401  0.68021551    -0.10900
H2762       H  0.64559791  0.65036308  0.63844833     0.08800
H2763       H  0.73868744  0.69298922  0.66499289     0.06400
H2764       H  0.68582298  0.73278704  0.69227124     0.06200
O2765       O  0.66831839  0.57078486  0.61733243    -0.74300
O2766       O  0.66580616  0.62234542  0.54733343    -0.74300
O2767       O  0.66556175  0.56934514  0.54681769    -0.74400
O2768       O  0.66859059  0.62311489  0.61776209    -0.74500
O2769       O  0.71794013  0.64808839  0.61722416    -0.74400
O2770       O  0.71492277  0.59397380  0.54659583    -0.74400
O2771       O  0.71516136  0.64650114  0.54677675    -0.74300
O2772       O  0.71767826  0.59522423  0.61716520    -0.74400
Ni2773     Ni  0.66533182  0.59552782  0.58239693     1.25400
Ni2774     Ni  0.71817272  0.62179097  0.58176557     1.25400
C2775       C  0.69303889  0.57350851  0.62765090     0.87900
C2776       C  0.69046193  0.64423652  0.53719444     0.87800
C2777       C  0.69014091  0.57191920  0.53655273     0.87800
C2778       C  0.69331851  0.64522377  0.62782318     0.88000
C2779       C  0.85887544  0.88866265  0.66746798     0.03200
C2780       C  0.88250428  0.88711399  0.65274939    -0.12900
C2781       C  0.88224265  0.86018759  0.65070687     0.00700
C2782       C  0.85837899  0.83475295  0.66620549    -0.11400
C2783       C  0.83479188  0.83647968  0.68248513     0.03200
C2784       C  0.83506466  0.86348762  0.68187301    -0.10900
H2785       H  0.90051967  0.90699450  0.64134087     0.08800
H2786       H  0.85816303  0.81392310  0.66560246     0.06400
H2787       H  0.81720974  0.86545292  0.69371565     0.06200
C2788       C  0.85860888  0.99845434  0.66584868     0.03200
C2789       C  0.88106876  0.52246100  0.64871413    -0.11100
C2790       C  0.88113120  0.54934871  0.64739859     0.00700
C2791       C  0.85784180  0.55135084  0.66411441    -0.11400
C2792       C  0.83453866  0.52625362  0.68088429     0.03200
C2793       C  0.83521271  0.00013136  0.68095719    -0.10900
H2794       H  0.89869102  0.52028807  0.63654347     0.08800
H2795       H  0.85790710  0.57210880  0.66418799     0.06400
H2796       H  0.81766206  0.98047480  0.69332606     0.06200
O2797       O  0.92763741  0.88391671  0.61871811    -0.74300
O2798       O  0.98137631  0.88579063  0.54828513    -0.74300
O2799       O  0.92835090  0.88586130  0.54809283    -0.74400
O2800       O  0.98009445  0.88379657  0.61869793    -0.74500
O2801       O  0.95538766  0.83457898  0.61876236    -0.74400
O2802       O  0.90404632  0.83665966  0.54797462    -0.74400
O2803       O  0.95655023  0.83656626  0.54844950    -0.74300
O2804       O  0.90260656  0.83471070  0.61854840    -0.74400
Ni2805     Ni  0.95521792  0.88659377  0.58353354     1.25400
Ni2806     Ni  0.92874791  0.83390606  0.58329338     1.25400
C2807       C  0.90558082  0.85935159  0.62904970     0.87900
C2808       C  0.97882989  0.86114221  0.53857214     0.87800
C2809       C  0.90649625  0.86119559  0.53779108     0.87800
C2810       C  0.97744201  0.85915303  0.62883899     0.88000
O2811       O  0.95678465  0.64819498  0.54717480    -0.74300
O2812       O  0.90193863  0.59553519  0.61609218    -0.74300
O2813       O  0.95504929  0.64807702  0.61755196    -0.74400
O2814       O  0.90392818  0.59588467  0.54546420    -0.74500
O2815       O  0.92823756  0.57091117  0.54489500    -0.74400
O2816       O  0.97911386  0.62286744  0.61706648    -0.74400
O2817       O  0.92651009  0.57083564  0.61540213    -0.74300
O2818       O  0.98136242  0.62348160  0.54670664    -0.74400
Ni2819     Ni  0.92852691  0.62278646  0.58143610     1.25400
Ni2820     Ni  0.95463567  0.59613276  0.58106295     1.25400
C2821       C  0.97909966  0.64579523  0.53740419     0.87900
C2822       C  0.90456990  0.57354244  0.62596928     0.87800
C2823       C  0.97669849  0.64489092  0.62776726     0.87800
C2824       C  0.90646290  0.57390502  0.53478883     0.88000
C2825       C  0.71949934  0.72168181  0.50445715     0.03200
C2826       C  0.71778870  0.69642592  0.51870468    -0.12900
C2827       C  0.69128418  0.66917560  0.51743557     0.00700
C2828       C  0.66630267  0.66758060  0.50034156    -0.11400
C2829       C  0.66819635  0.69326291  0.98509417     0.03200
C2830       C  0.69488229  0.72022849  0.98818425    -0.10900
H2831       H  0.73731475  0.69841882  0.53142918     0.08800
H2832       H  0.64578899  0.64661532  0.49866637     0.06400
H2833       H  0.69722603  0.74016458  0.97648566     0.06200
C2834       C  0.82966786  0.83139181  0.50141917     0.03200
C2835       C  0.85485249  0.83340089  0.51661234    -0.12900
C2836       C  0.88188710  0.86014157  0.51676479     0.00700
C2837       C  0.88343650  0.88508500  0.49995095    -0.11400
C2838       C  0.85790078  0.88295907  0.98364263     0.03200
C2839       C  0.83108243  0.85593334  0.98517940    -0.10900
H2840       H  0.85282158  0.81398033  0.52943276     0.08800
H2841       H  0.90423339  0.90583565  0.49950802     0.06400
H2842       H  0.81122087  0.85349635  0.97289786     0.06200
C2843       C  0.99628508  0.85752151  0.83309375     0.03200
C2844       C  0.49825487  0.83481187  0.81641516    -0.12900
C2845       C  0.52537708  0.83514586  0.81456888     0.00700
C2846       C  0.55065545  0.85861059  0.83111899    -0.11400
C2847       C  0.54849393  0.88150213  0.84856287     0.03200
C2848       C  0.52120006  0.88073784  0.84865587    -0.10900
H2849       H  0.97855235  0.81734098  0.80385723     0.08800
H2850       H  0.57164724  0.85905655  0.83043456     0.06400
H2851       H  0.51879470  0.89784725  0.86180951     0.06200
C2852       C  0.88641930  0.85820105  0.83455177     0.03200
C2853       C  0.88483803  0.88146330  0.85017992    -0.12900
C2854       C  0.85831256  0.88229134  0.85001182     0.00700
C2855       C  0.83312228  0.85925889  0.83275153    -0.11400
C2856       C  0.83478915  0.83567334  0.81639661     0.03200
C2857       C  0.86161213  0.83543747  0.81808057    -0.10900
H2858       H  0.90444619  0.89864698  0.86321489     0.08800
H2859       H  0.81257973  0.85970502  0.83203164     0.06400
H2860       H  0.86378888  0.81797348  0.80553575     0.06200
O2861       O  0.83412843  0.90452094  0.95117651    -0.74300
O2862       O  0.83327145  0.95656389  0.88020674    -0.74300
O2863       O  0.83282110  0.90349553  0.88054600    -0.74400
O2864       O  0.83439656  0.95719265  0.95090743    -0.74500
O2865       O  0.88374119  0.98195688  0.95156102    -0.74400
O2866       O  0.88216933  0.92796710  0.88156833    -0.74400
O2867       O  0.88260523  0.98062836  0.88092305    -0.74300
O2868       O  0.88347121  0.92900454  0.95215730    -0.74400
Ni2869     Ni  0.83190657  0.92959567  0.91579365     1.25400
Ni2870     Ni  0.88472371  0.95574890  0.91648194     1.25400
C2871       C  0.85869556  0.90711728  0.96202001     0.87900
C2872       C  0.85814257  0.97819379  0.87003605     0.87800
C2873       C  0.85753547  0.90602765  0.87091604     0.87800
C2874       C  0.85899350  0.97921533  0.96147019     0.88000
C2875       C  0.69168599  0.55386973  0.83315673     0.03200
C2876       C  0.66842225  0.52873750  0.84828021    -0.12900
C2877       C  0.66797220  0.00157040  0.84940828     0.00700
C2878       C  0.69180579  0.00020668  0.83317107    -0.11400
C2879       C  0.71597318  0.52604974  0.81709533     0.03200
C2880       C  0.71537900  0.55261189  0.81806877    -0.10900
H2881       H  0.65056028  0.53057717  0.86031881     0.08800
H2882       H  0.69227344  0.97971963  0.83337645     0.06400
H2883       H  0.73288585  0.57241416  0.80589820     0.06200
C2884       C  0.69164049  0.66388564  0.83197146     0.03200
C2885       C  0.71475381  0.68864949  0.81597137    -0.12900
C2886       C  0.71517905  0.71574405  0.81541826     0.00700
C2887       C  0.69202759  0.71778163  0.83250542    -0.11400
C2888       C  0.66867820  0.69269992  0.84929852     0.03200
C2889       C  0.66870909  0.66585253  0.84815286    -0.10900
H2890       H  0.73204613  0.68633646  0.80310818     0.08800
H2891       H  0.69218704  0.73858639  0.83274380     0.06400
H2892       H  0.65130352  0.64632977  0.86090169     0.06200
O2893       O  0.62250307  0.66804433  0.95234182    -0.74300
O2894       O  0.57102651  0.66987728  0.88124835    -0.74300
O2895       O  0.62333625  0.66943529  0.88163607    -0.74400
O2896       O  0.57000462  0.66857115  0.95212670    -0.74500
O2897       O  0.59517580  0.71775726  0.95166187    -0.74400
O2898       O  0.64840962  0.71862482  0.88096668    -0.74400
O2899       O  0.59562276  0.71905294  0.88068158    -0.74300
O2900       O  0.64738421  0.71723443  0.95175954    -0.74400
Ni2901     Ni  0.59581829  0.66726581  0.91671861     1.25400
Ni2902     Ni  0.62251529  0.71991406  0.91633560     1.25400
C2903       C  0.64442085  0.69263542  0.96267114     0.87900
C2904       C  0.57381531  0.69437177  0.87026192     0.87800
C2905       C  0.64542133  0.69384898  0.87095725     0.87800
C2906       C  0.57332089  0.69333874  0.96270633     0.88000
O2907       O  0.59475505  0.90230963  0.88005761    -0.74300
O2908       O  0.64575440  0.95556567  0.95135621    -0.74300
O2909       O  0.59368203  0.90334911  0.95083364    -0.74400
O2910       O  0.64752113  0.95532587  0.88066874    -0.74500
O2911       O  0.62229218  0.97936188  0.88086766    -0.74400
O2912       O  0.56874008  0.92767515  0.95124148    -0.74400
O2913       O  0.62123245  0.98031673  0.95152213    -0.74300
O2914       O  0.57001411  0.92684607  0.88048780    -0.74400
Ni2915     Ni  0.62129996  0.92826125  0.91576823     1.25400
Ni2916     Ni  0.59467576  0.95438881  0.91585536     1.25400
C2917       C  0.57279956  0.90499296  0.86990637     0.87900
C2918       C  0.64286448  0.97729284  0.96217528     0.87800
C2919       C  0.57196801  0.90624440  0.96192146     0.87800
C2920       C  0.64454207  0.97706816  0.87057582     0.88000
O2921       O  0.73570611  0.76196107  0.78424821    -0.74300
O2922       O  0.78899593  0.81420226  0.71385518    -0.74300
O2923       O  0.73673124  0.76136165  0.71355580    -0.74400
O2924       O  0.78850563  0.81512004  0.78450543    -0.74500
O2925       O  0.81311010  0.79046518  0.78398127    -0.74400
O2926       O  0.76175836  0.73712009  0.71284678    -0.74400
O2927       O  0.81428846  0.79022373  0.71339047    -0.74300
O2928       O  0.76075180  0.73774100  0.78346070    -0.74400
Ni2929     Ni  0.76158493  0.78901241  0.74895407     1.25400
Ni2930     Ni  0.78835644  0.76304762  0.74851016     1.25400
C2931       C  0.73862597  0.74013060  0.79409456     0.87900
C2932       C  0.81123411  0.81194677  0.70342430     0.87800
C2933       C  0.73967153  0.73961748  0.70280173     0.87800
C2934       C  0.81047175  0.81238482  0.79462796     0.88000
C2935       C  0.69884335  0.62611157  0.86336440    -0.01700
C2936       C  0.69157732  0.63567173  0.83221855     0.07900
C2937       C  0.68391997  0.61818149  0.80150148    -0.01900
C2938       C  0.68397236  0.59133156  0.80180356    -0.01900
C2939       C  0.69121466  0.58179006  0.83297438     0.08100
C2940       C  0.69827512  0.59897590  0.86387535    -0.02100
Br2941     Br  0.70738540  0.58542455  0.90680895    -0.00600
Br2942     Br  0.71038850  0.65059650  0.90504358    -0.00700
Br2943     Br  0.67348350  0.56723182  0.75980411    -0.00600
Br2944     Br  0.67268191  0.63068792  0.75931901    -0.00600
C2945       C  0.95045969  0.84880633  0.86415583    -0.01700
C2946       C  0.96809454  0.85754407  0.83358280     0.07900
C2947       C  0.95937013  0.86725680  0.80376234    -0.01900
C2948       C  0.93285176  0.86804705  0.80442195    -0.01900
C2949       C  0.91460232  0.85813614  0.83442924     0.08100
C2950       C  0.92332629  0.84842759  0.86426651    -0.02100
Br2951     Br  0.89791146  0.83423645  0.90498115    -0.00600
Br2952     Br  0.96373653  0.83787419  0.90596934    -0.00700
Br2953     Br  0.92187915  0.88353751  0.76472073    -0.00600
Br2954     Br  0.98422821  0.88025295  0.76243899    -0.00600
C2955       C  0.79295918  0.78393267  0.97338043    -0.01700
C2956       C  0.80161084  0.80315608  0.50253232     0.07900
C2957       C  0.78400090  0.79506926  0.53312633    -0.01900
C2958       C  0.75715314  0.76809660  0.53406470    -0.01900
C2959       C  0.74795976  0.74948449  0.50429696     0.08100
C2960       C  0.76601635  0.75717000  0.97417193    -0.02100
Br2961     Br  0.75400207  0.73069169  0.93426584    -0.00600
Br2962     Br  0.81845065  0.79384932  0.93284845    -0.00700
Br2963     Br  0.73301939  0.75651858  0.57597708    -0.00600
Br2964     Br  0.79680863  0.82092333  0.57365237    -0.00600
C2965       C  0.86228403  0.93223805  0.69888731    -0.01700
C2966       C  0.85889845  0.91682483  0.66713849     0.07900
C2967       C  0.85570971  0.92833683  0.63494737    -0.01900
C2968       C  0.85527954  0.95494974  0.63460388    -0.01900
C2969       C  0.85874905  0.97039899  0.66632765     0.08100
C2970       C  0.86234140  0.95911576  0.69846899    -0.02100
Br2971     Br  0.86801413  0.48055957  0.74037374    -0.00600
Br2972     Br  0.86794257  0.91710285  0.74278483    -0.00700
Br2973     Br  0.84874100  0.96961966  0.59081874    -0.00600
Br2974     Br  0.85142457  0.90746091  0.59128240    -0.00600
C2975       C  0.59200895  0.68548196  0.69689370    -0.01700
C2976       C  0.58102837  0.69052618  0.66537094     0.07900
C2977       C  0.59668097  0.69520897  0.63357929    -0.01900
C2978       C  0.62363574  0.69530093  0.63342585    -0.01900
C2979       C  0.63487945  0.69080822  0.66509976     0.08100
C2980       C  0.61887022  0.68540064  0.69670089    -0.02100
Br2981     Br  0.63323937  0.67681781  0.73939948    -0.00600
Br2982     Br  0.57007860  0.67828442  0.74021032    -0.00700
Br2983     Br  0.64535802  0.70203118  0.58995453    -0.00600
Br2984     Br  0.58164613  0.70240849  0.59047054    -0.00600
C2985       C  0.02279491  0.76170537  0.97734848    -0.01700
C2986       C  0.53007235  0.75203383  0.00836025     0.07900
C2987       C  0.53662795  0.76875632  0.53962300    -0.01900
C2988       C  0.53621692  0.79544419  0.53969535    -0.01900
C2989       C  0.52922473  0.80520332  0.00851115     0.08100
C2990       C  0.02234160  0.78826271  0.97743146    -0.02100
Br2991     Br  0.01139233  0.80102071  0.93515335    -0.00600
Br2992     Br  0.01255227  0.73807647  0.93493454    -0.00700
Br2993     Br  0.54558950  0.81882124  0.58218053    -0.00600
Br2994     Br  0.54648789  0.75525298  0.58203355    -0.00600
C2995       C  0.78401468  0.01678666  0.53297105    -0.01700
C2996       C  0.80141513  0.52563052  0.99937026     0.07900
C2997       C  0.79169750  0.53392268  0.96920808    -0.01900
C2998       C  0.76416092  0.53257425  0.96949534    -0.01900
C2999       C  0.74703811  0.52413746  0.00044724     0.08100
C3000       C  0.75669649  0.01598115  0.53364300    -0.02100
Br3001     Br  0.73362039  0.00554255  0.57639189    -0.00600
Br3002     Br  0.79833298  0.00672858  0.57457386    -0.00700
Br3003     Br  0.74996754  0.54250050  0.92764662    -0.00600
Br3004     Br  0.81660698  0.54808038  0.92801392    -0.00600
C3005       C  0.96263724  0.61662513  0.79753170    -0.01700
C3006       C  0.97083375  0.63554147  0.82698875     0.07900
C3007       C  0.95216458  0.62767194  0.85658721    -0.01900
C3008       C  0.92564643  0.60045605  0.85717470    -0.01900
C3009       C  0.91745955  0.58147963  0.82779320     0.08100
C3010       C  0.93571670  0.58969846  0.79776668    -0.02100
Br3011     Br  0.92369047  0.56414313  0.75701219    -0.00600
Br3012     Br  0.48835544  0.62756365  0.75708479    -0.00700
Br3013     Br  0.90024552  0.58930107  0.89797295    -0.00600
Br3014     Br  0.96261368  0.65463760  0.89586348    -0.00600
C3015       C  0.59377291  0.93039487  0.69639746    -0.01700
C3016       C  0.58271660  0.91528437  0.66426194     0.07900
C3017       C  0.59863984  0.92676180  0.63278514    -0.01900
C3018       C  0.62555467  0.95359250  0.63338049    -0.01900
C3019       C  0.63634643  0.96899197  0.66540143     0.08100
C3020       C  0.62069342  0.95721702  0.69701234    -0.02100
Br3021     Br  0.63375348  0.47949151  0.73961654    -0.00600
Br3022     Br  0.57158416  0.91475235  0.73942451    -0.00700
Br3023     Br  0.64827109  0.96864213  0.59060487    -0.00600
Br3024     Br  0.58393654  0.90540029  0.58902155    -0.00600
loop_ 
_geom_bond_atom_site_label_1 
_geom_bond_atom_site_label_2 
_geom_bond_distance 
_geom_bond_site_symmetry_2 
_ccdc_geom_bond_type 
C1            C2   1.390       .  A
C1            C6   1.391       .  A
C1          C370   1.468       .  S
C2         C1515   1.403       .  A
C2            H7   1.083       .  S
C3            C4   1.419       .  A
C3         C1514   1.403       .  A
C3          C164   1.487       .  S
C4         C1517   1.419       .  A
C4            H8   1.084       .  S
C5            C6   1.404       .  A
C5         C1516   1.419       .  A
C5           C61   1.489       .  S
C6            H9   1.083       .  S
C10         C767   1.388       .  A
C10         C771   1.390       .  A
C10         C373   1.468       .  S
C11          C12   1.402   1_565  A
C11         C766   1.388       .  A
C11         H772   1.083       .  S
C12          C13   1.418       .  A
C12          C50   1.484       .  S
C13          C14   1.418       .  A
C13          H17   1.084       .  S
C14          C15   1.404       .  A
C14         C129   1.486       .  S
C15         C766   1.391   1_545  A
C15          H18   1.083       .  S
H16         C767   1.083       .  S
C19          C20   1.392   1_655  A
C19          C24   1.391   1_655  A
C19        C1872   1.472       .  S
C20          C21   1.406       .  A
C20          H25   1.083       .  S
C21          C22   1.421       .  A
C21         C258   1.494       .  S
C22          C23   1.422       .  A
C22          H26   1.084       .  S
C23          C24   1.404       .  A
C23          C62   1.490       .  S
C24        H1539   1.083   1_455  S
H27        C1536   1.083       .  S
C28          C29   1.394       .  A
C28          C33   1.390       .  A
C28         C363   1.472       .  S
C29         C786   1.407       .  A
C29          H34   1.083       .  S
C30          C31   1.420       .  A
C30         C785   1.406       .  A
C30         C226   1.492       .  S
C31         C788   1.419       .  A
C31          H35   1.084       .  S
C32          C33   1.403       .  A
C32         C787   1.419       .  A
C32          C49   1.487       .  S
C33          H36   1.084       .  S
O37         Ni45   1.928       .  S
O37          C47   1.281       .  A
O38         Ni45   1.921       .  S
O38          C48   1.285       .  A
O39         Ni45   1.919       .  S
O39          C49   1.285       .  A
O40         Ni45   1.926       .  S
O40          C50   1.280       .  A
O41         Ni46   1.910       .  S
O41          C50   1.283       .  A
O42        Ni802   1.925       .  S
O42         C805   1.280       .  A
O43         Ni46   1.926       .  S
O43          C48   1.280       .  A
O44         Ni46   1.913       .  S
O44          C47   1.284       .  A
Ni45        Ni46   2.384       .  S
Ni46        O798   1.924       .  S
C47         C146   1.486       .  S
C48         C233   1.489       .  S
C49         O798   1.280       .  A
O51         Ni59   1.928       .  S
O51        C1573   1.281       .  A
O52       Ni1571   1.921   1_455  S
O52          C62   1.286       .  A
O53       Ni1571   1.914   1_455  S
O53          C63   1.284       .  A
O54         Ni59   1.920       .  S
O54        C1576   1.279       .  A
O55         Ni60   1.919       .  S
O55          C64   1.285       .  A
O56         Ni60   1.930       .  S
O56          C63   1.282       .  A
O57         Ni60   1.928       .  S
O57          C62   1.280       .  A
O58         Ni60   1.917       .  S
O58          C61   1.284       .  A
Ni59       O1564   1.921       .  S
Ni59       O1565   1.914       .  S
Ni59      Ni1572   2.384       .  S
Ni60      Ni1571   2.384   1_455  S
C61        O1563   1.281       .  A
C63         C199   1.489       .  S
C64         C105   1.484       .  S
C64        O1566   1.279       .  A
C65          C66   1.391       .  A
C65         C448   1.390       .  A
C65         C350   1.466       .  S
C66          C67   1.403       .  A
C66         H827   1.084   1_545  S
C67         C446   1.419       .  A
C67         C984   1.489   1_545  S
C68          C69   1.419   1_556  A
C68         C445   1.419       .  A
C68          H72   1.083       .  S
C69          C70   1.403       .  A
C69         C178   1.486       .  S
C70         C443   1.390       .  A
C70          H73   1.084       .  S
H71         C822   1.084       .  S
C74          C75   1.388   1_545  A
C74         C457   1.389       .  A
C74         C353   1.465       .  S
C75          C76   1.403   1_565  A
C75         H836   1.084       .  S
C76          C77   1.420       .  A
C76        C1028   1.485   1_545  S
C77         C456   1.419       .  A
C77          H81   1.083       .  S
C78          C79   1.403       .  A
C78         C455   1.419   1_554  A
C78         C131   1.486       .  S
C79         C452   1.389       .  A
C79          H82   1.084       .  S
H80         C831   1.084       .  S
C83          C88   1.392       .  A
C83         C462   1.391       .  A
C83         C340   1.469       .  S
C84          C85   1.404       .  A
C84         C461   1.391       .  A
C84        H1601   1.084   1_455  S
C85          C86   1.418       .  A
C85        C1687   1.487   1_455  S
C86         C465   1.419   1_554  A
C86          H90   1.083   1_554  S
C87          C88   1.404       .  A
C87         C464   1.419       .  A
C87         C260   1.488       .  S
C88          H91   1.084       .  S
H89        C1596   1.084       .  S
C92          C93   1.391       .  A
C92         C475   1.391       .  A
C92         C343   1.470       .  S
C93          C94   1.403       .  A
C93          H98   1.083       .  S
C94          C95   1.420       .  A
C94         C273   1.488       .  S
C95         C474   1.418       .  A
C95          H99   1.083       .  S
C96          C97   1.405       .  A
C96         C473   1.418   1_554  A
C96        C1674   1.487   1_455  S
C97         C470   1.391       .  A
C97        H1612   1.084   1_455  S
H100       C1609   1.084       .  S
C101        C102   1.391       .  A
C101        C106   1.392       .  A
C101        C330   1.469       .  S
C102       C1615   1.403       .  A
C102        H107   1.084       .  S
C103        C104   1.416       .  A
C103       C1614   1.403       .  A
C103        C177   1.484       .  S
C104       C1617   1.417       .  A
C104        H108   1.083       .  S
C105        C106   1.403       .  A
C105       C1616   1.417       .  A
C106        H109   1.084       .  S
C110        C111   1.387       .  A
C110        C115   1.392       .  A
C110        C333   1.469       .  S
C111        C112   1.402       .  A
C111        H116   1.084       .  S
C112        C113   1.419       .  A
C112        C132   1.486       .  S
C113        C114   1.421       .  A
C113        H117   1.083       .  S
C114        C115   1.404       .  A
C114        C287   1.488       .  S
C115        H118   1.083       .  S
O119       Ni127   1.915       .  S
O119        C129   1.284       .  A
O120       Ni127   1.929       .  S
O120        C130   1.281       .  A
O121       Ni127   1.924       .  S
O121        C131   1.280       .  A
O122       Ni127   1.911       .  S
O122        C132   1.284       .  A
O123       Ni128   1.927       .  S
O123        C132   1.280       .  A
O124       Ni128   1.917       .  S
O124        C131   1.285       .  A
O125       Ni128   1.917       .  S
O125        C130   1.285       .  A
O126       Ni128   1.926       .  S
O126        C129   1.280       .  A
Ni127      Ni128   2.384       .  S
C130        C181   1.489       .  S
C133        C134   1.391       .  A
C133        C138   1.393       .  A
C133        C320   1.473       .  S
C134        C135   1.403       .  A
C134        H139   1.084       .  S
C135        C136   1.419       .  A
C135        C161   1.488       .  S
C136        C137   1.419       .  A
C136        H140   1.083       .  S
C137        C138   1.405       .  A
C137        C286   1.490       .  S
C138        H141   1.083       .  S
C142        C147   1.390       .  A
C142        C899   1.392       .  A
C142        C323   1.472       .  S
C143        C144   1.403       .  A
C143        C898   1.390   1_545  A
C143        H148   1.083       .  S
C144        C145   1.420       .  A
C144        C176   1.487       .  S
C145        C146   1.419       .  A
C145        H149   1.083       .  S
C146        C903   1.403       .  A
C147        C902   1.403       .  A
C147        H150   1.084       .  S
O151       Ni159   1.918       .  S
O151        C161   1.285       .  A
O152       Ni159   1.928       .  S
O152        C162   1.281       .  A
O153       Ni159   1.928       .  S
O153        C163   1.281       .  A
O154       Ni159   1.917       .  S
O154        C164   1.285       .  A
O155       Ni160   1.924       .  S
O155        C164   1.280       .  A
O156       Ni160   1.916       .  S
O156        C163   1.285       .  A
O157       Ni160   1.917       .  S
O157        C162   1.284       .  A
O158       Ni160   1.926       .  S
O158        C161   1.280       .  A
Ni159      Ni160   2.384       .  S
C162       C1608   1.487       .  S
C163        C190   1.488       .  S
O165       Ni173   1.918       .  S
O165        C175   1.285       .  A
O166       Ni173   1.927       .  S
O166        C176   1.280       .  A
O167       Ni173   1.925       .  S
O167        C177   1.281       .  A
O168       Ni173   1.919       .  S
O168        C178   1.285       .  A
O169       Ni174   1.922       .  S
O169        C178   1.279       .  A
O170       Ni174   1.911       .  S
O170        C177   1.283       .  A
O171       Ni174   1.915       .  S
O171        C176   1.285       .  A
O172       Ni174   1.925       .  S
O172        C175   1.280       .  A
Ni173      Ni174   2.385       .  S
C175       C1597   1.487       .  S
C179        C180   1.390       .  A
C179        C562   1.392   1_554  A
C179        C313   1.469       .  S
C180        C181   1.404       .  A
C180        H185   1.083       .  S
C181        C182   1.419       .  A
C182        C561   1.421   1_554  A
C182        H186   1.084   1_554  S
C183        C184   1.404       .  A
C183        C560   1.421       .  A
C183        C257   1.490       .  S
C184        C557   1.392       .  A
C184        H187   1.083       .  S
C188        C189   1.389       .  A
C188        C571   1.393   1_554  A
C188        C310   1.470       .  S
C189        C190   1.403       .  A
C189        H194   1.084       .  S
C190        C191   1.419       .  A
C191        C570   1.421   1_554  A
C191        H195   1.084   1_554  S
C192        C193   1.406       .  A
C192        C569   1.421       .  A
C192        C225   1.492       .  S
C193        C566   1.393       .  A
C193        H196   1.083       .  S
C197       C1710   1.392       .  A
C197       C1714   1.388       .  A
C197        C300   1.468       .  S
C198        C199   1.406   1_655  A
C198       C1709   1.392       .  A
C198       H1715   1.084       .  S
C199        C200   1.419       .  A
C200        C201   1.419       .  A
C200        H204   1.083       .  S
C201        C202   1.402       .  A
C201        C271   1.485       .  S
C202       C1709   1.388   1_455  A
C202        H205   1.084       .  S
H203       C1710   1.084       .  S
C206        C207   1.390       .  A
C206        C211   1.391       .  A
C206        C303   1.469       .  S
C207        C208   1.404       .  A
C207        H212   1.084       .  S
C208        C209   1.420       .  A
C208        C227   1.487       .  S
C209        C210   1.419       .  A
C209        H213   1.083       .  S
C210        C211   1.405       .  A
C210        C288   1.490       .  S
C211        H214   1.084       .  S
O215       Ni223   1.923       .  S
O215        C225   1.286       .  A
O216       Ni223   1.931       .  S
O216        C226   1.282       .  A
O217       Ni223   1.925       .  S
O217        C227   1.280       .  A
O218       Ni223   1.915       .  S
O218        C228   1.284       .  A
O219       Ni224   1.927       .  S
O219        C228   1.281       .  A
O220       Ni224   1.919       .  S
O220        C227   1.285       .  A
O221       Ni224   1.920       .  S
O221        C226   1.285       .  A
O222       Ni224   1.928       .  S
O222        C225   1.281       .  A
Ni223      Ni224   2.383       .  S
C228        C823   1.487       .  S
C229        C230   1.390       .  A
C229        C234   1.391       .  A
C229        C293   1.470       .  S
C230        C987   1.405       .  A
C230        H235   1.083       .  S
C231        C232   1.419       .  A
C231        C986   1.405       .  A
C231        C274   1.490       .  S
C232        C989   1.420       .  A
C232        H236   1.083       .  S
C233        C234   1.404       .  A
C233        C988   1.420       .  A
C234        H237   1.084       .  S
C238        C239   1.392       .  A
C238        C243   1.391       .  A
C238        C290   1.471       .  S
C239        C240   1.405       .  A
C239        H244   1.083       .  S
C240        C241   1.420       .  A
C240        C285   1.490       .  S
C241        C242   1.420       .  A
C241        H245   1.083       .  S
C242        C243   1.404       .  A
C242        C259   1.490       .  S
C243        H246   1.084       .  S
O247       Ni255   1.926       .  S
O247        C257   1.280       .  A
O248       Ni255   1.919       .  S
O248        C258   1.285       .  A
O249       Ni255   1.918       .  S
O249        C259   1.285       .  A
O250       Ni255   1.926       .  S
O250        C260   1.280       .  A
O251       Ni256   1.919       .  S
O251        C260   1.285       .  A
O252       Ni256   1.929       .  S
O252        C259   1.281       .  A
O253       Ni256   1.934       .  S
O253        C258   1.282       .  A
O254       Ni256   1.922       .  S
O254        C257   1.286       .  A
Ni255      Ni256   2.383       .  S
O261       Ni269   1.924       .  S
O261        C271   1.280       .  A
O262       Ni269   1.912       .  S
O262        C272   1.284       .  A
O263       Ni269   1.917       .  S
O263        C273   1.285       .  A
O264       Ni269   1.929       .  S
O264        C274   1.281       .  A
O265       Ni270   1.917       .  S
O265        C274   1.285       .  A
O266       Ni270   1.926       .  S
O266        C273   1.280       .  A
O267       Ni270   1.924       .  S
O267        C272   1.280       .  A
O268       Ni270   1.915       .  S
O268        C271   1.285       .  A
Ni269      Ni270   2.384       .  S
C272        C832   1.485       .  S
O275       Ni283   1.927       .  S
O275        C285   1.281       .  A
O276       Ni283   1.918       .  S
O276        C286   1.284       .  A
O277       Ni283   1.922       .  S
O277        C287   1.286       .  A
O278       Ni283   1.931       .  S
O278        C288   1.282       .  A
O279       Ni284   1.916       .  S
O279        C288   1.284       .  A
O280       Ni284   1.924       .  S
O280        C287   1.280       .  A
O281       Ni284   1.930       .  S
O281        C286   1.282       .  A
O282       Ni284   1.922       .  S
O282        C285   1.286       .  A
Ni283      Ni284   2.383       .  S
C289        C290   1.408       .  A
C289        C294   1.403       .  A
C289       Br296   1.930       .  S
C290        C291   1.408       .  A
C291        C292   1.404       .  A
C291       Br298   1.929       .  S
C292        C293   1.408       .  A
C292       Br297   1.931       .  S
C293        C294   1.408       .  A
C294       Br295   1.931       .  S
C299        C300   1.408       .  A
C299        C304   1.404       .  A
C299       Br306   1.930       .  S
C300        C301   1.407       .  A
C301        C302   1.402       .  A
C301       Br308   1.930       .  S
C302        C303   1.407       .  A
C302       Br307   1.931       .  S
C303        C304   1.408       .  A
C304       Br305   1.928       .  S
C309        C314   1.401       .  A
C309        C688   1.407       .  A
C309       Br316   1.929       .  S
C310        C311   1.409       .  A
C310        C687   1.407   1_554  A
C311        C312   1.405       .  A
C311       Br318   1.930       .  S
C312        C313   1.408       .  A
C312       Br317   1.931       .  S
C313        C692   1.407   1_554  A
C314        C691   1.407       .  A
C314       Br315   1.931       .  S
C319        C320   1.410       .  A
C319        C324   1.404       .  A
C319       Br326   1.933       .  S
C320        C321   1.411       .  A
C321        C322   1.403       .  A
C321       Br328   1.933       .  S
C322        C323   1.409       .  A
C322       Br327   1.933       .  S
C323        C324   1.410       .  A
C324      Br1081   1.933       .  S
Br325      C1080   1.934       .  S
C329        C330   1.409       .  A
C329        C334   1.403       .  A
C329       Br336   1.932       .  S
C330        C331   1.410       .  A
C331        C332   1.402       .  A
C331       Br338   1.934       .  S
C332        C333   1.410       .  A
C332       Br337   1.934       .  S
C333        C334   1.409       .  A
C334       Br335   1.932       .  S
C339        C344   1.400       .  A
C339       C1852   1.408       .  A
C339       Br346   1.933       .  S
C340       C1851   1.408       .  A
C340        C719   1.409       .  A
C341        C342   1.406       .  A
C341        C718   1.409       .  A
C341       Br348   1.931       .  S
C342        C721   1.410       .  A
C342       Br347   1.930       .  S
C343        C720   1.410       .  A
C343       C1856   1.408       .  A
C344       C1855   1.408       .  A
C344       Br345   1.933       .  S
C349        C354   1.402       .  A
C349       C1484   1.408   1_554  A
C349       Br356   1.931       .  S
C350        C351   1.407       .  A
C350       C1483   1.409       .  A
C351        C352   1.401       .  A
C351       Br358   1.931       .  S
C352        C353   1.408       .  A
C352       Br357   1.933       .  S
C353       C1488   1.408       .  A
C354       C1487   1.408       .  A
C354       Br355   1.931       .  S
C359        C360   1.409       .  A
C359        C364   1.406       .  A
C359      Br1878   1.931       .  S
C360        C361   1.409       .  A
C360       C1531   1.472       .  S
C361        C362   1.403       .  A
C361       Br368   1.932       .  S
C362        C363   1.408       .  A
C362       Br367   1.932       .  S
C363        C364   1.410       .  A
C364       Br365   1.931       .  S
Br366      C1871   1.931       .  S
C369        C370   1.409       .  A
C369        C374   1.402       .  A
C369       Br376   1.932       .  S
C370        C371   1.408       .  A
C371        C372   1.403       .  A
C371       Br378   1.931       .  S
C372        C373   1.409       .  A
C372       Br377   1.932       .  S
C373        C374   1.409       .  A
C374      Br1131   1.933       .  S
Br375      C1130   1.933       .  S
C379        C380   1.390       .  A
C379        C384   1.391       .  A
C379        C748   1.468       .  S
C380       C1893   1.403       .  A
C380        H385   1.083       .  S
C381       C1892   1.403       .  A
C381        C382   1.419       .  A
C381        C542   1.487       .  S
C382       C1895   1.419       .  A
C382        H386   1.084       .  S
C383       C1894   1.419       .  A
C383        C384   1.404       .  A
C383        C439   1.489       .  S
C384        H387   1.083       .  S
C388       C1145   1.388       .  A
C388       C1149   1.390       .  A
C388        C751   1.468       .  S
C389       C1144   1.388       .  A
C389        C390   1.402   1_565  A
C389       H1150   1.083       .  S
C390        C391   1.418       .  A
C390        C428   1.484       .  S
C391        C392   1.418       .  A
C391        H395   1.084       .  S
C392        C393   1.404       .  A
C392        C507   1.486       .  S
C393       C1144   1.391   1_545  A
C393        H396   1.083       .  S
H394       C1145   1.083       .  S
C397        C398   1.392   1_655  A
C397        C402   1.391   1_655  A
C397       C2250   1.472       .  S
C398        C399   1.406       .  A
C398        H403   1.083       .  S
C399        C400   1.421       .  A
C399        C636   1.494       .  S
C400        C401   1.422       .  A
C400        H404   1.084       .  S
C401        C402   1.404       .  A
C401        C440   1.490       .  S
C402       H1917   1.083   1_455  S
H405       C1914   1.083       .  S
C406        C407   1.394       .  A
C406        C411   1.390       .  A
C406        C741   1.472       .  S
C407       C1164   1.407       .  A
C407        H412   1.083       .  S
C408       C1163   1.406       .  A
C408        C409   1.420       .  A
C408        C604   1.492       .  S
C409       C1166   1.419       .  A
C409        H413   1.084       .  S
C410       C1165   1.419       .  A
C410        C411   1.403       .  A
C410        C427   1.487       .  S
C411        H414   1.084       .  S
O415       Ni423   1.928       .  S
O415        C425   1.281       .  A
O416       Ni423   1.921       .  S
O416        C426   1.285       .  A
O417       Ni423   1.919       .  S
O417        C427   1.285       .  A
O418       Ni423   1.926       .  S
O418        C428   1.280       .  A
O419       Ni424   1.910       .  S
O419        C428   1.283       .  A
O420      Ni1180   1.925       .  S
O420       C1183   1.280       .  A
O421       Ni424   1.926       .  S
O421        C426   1.280       .  A
O422       Ni424   1.913       .  S
O422        C425   1.284       .  A
Ni423      Ni424   2.384       .  S
Ni424      O1176   1.924       .  S
C425        C524   1.486       .  S
C426        C611   1.489       .  S
C427       O1176   1.280       .  A
O429       Ni437   1.928       .  S
O429       C1951   1.281       .  A
O430      Ni1949   1.921   1_455  S
O430        C440   1.286       .  A
O431      Ni1949   1.914   1_455  S
O431        C441   1.284       .  A
O432       Ni437   1.920       .  S
O432       C1954   1.279       .  A
O433       Ni438   1.919       .  S
O433        C442   1.285       .  A
O434       Ni438   1.930       .  S
O434        C441   1.282       .  A
O435       Ni438   1.928       .  S
O435        C440   1.280       .  A
O436       Ni438   1.917       .  S
O436        C439   1.284       .  A
Ni437      O1942   1.921       .  S
Ni437      O1943   1.914       .  S
Ni437     Ni1950   2.384       .  S
Ni438     Ni1949   2.384   1_455  S
C439       O1941   1.281       .  A
C441        C577   1.489       .  S
C442        C483   1.484       .  S
C442       O1944   1.279       .  A
C443        C444   1.391   1_554  A
C443        C728   1.466       .  S
C444        C445   1.403       .  A
C444       H1205   1.084   1_545  S
C445       C1362   1.489   1_545  S
C446        C447   1.419       .  A
C446        H450   1.083       .  S
C447        C448   1.403       .  A
C447        C556   1.486       .  S
C448        H451   1.084       .  S
H449       C1200   1.084       .  S
C452        C453   1.388   1_544  A
C452        C731   1.465       .  S
C453        C454   1.403   1_565  A
C453       H1214   1.084       .  S
C454        C455   1.420       .  A
C454       C1406   1.485   1_545  S
C455        H459   1.083       .  S
C456        C457   1.403       .  A
C456        C509   1.486       .  S
C457        H460   1.084       .  S
H458       C1209   1.084       .  S
C461        C466   1.392   1_554  A
C461        C718   1.469       .  S
C462        C463   1.404       .  A
C462       H1979   1.084   1_455  S
C463        C464   1.418       .  A
C463       C2065   1.487   1_455  S
C464        H468   1.083       .  S
C465        C466   1.404       .  A
C465        C638   1.488       .  S
C466        H469   1.084       .  S
H467       C1974   1.084       .  S
C470        C471   1.391   1_554  A
C470        C721   1.470       .  S
C471        C472   1.403       .  A
C471        H476   1.083       .  S
C472        C473   1.420       .  A
C472        C651   1.488       .  S
C473        H477   1.083       .  S
C474        C475   1.405       .  A
C474       C2052   1.487   1_455  S
C475       H1990   1.084   1_455  S
H478       C1987   1.084       .  S
C479        C480   1.391       .  A
C479        C484   1.392       .  A
C479        C708   1.469       .  S
C480       C1993   1.403       .  A
C480        H485   1.084       .  S
C481       C1992   1.403       .  A
C481        C482   1.416       .  A
C481        C555   1.484       .  S
C482       C1995   1.417       .  A
C482        H486   1.083       .  S
C483       C1994   1.417       .  A
C483        C484   1.403       .  A
C484        H487   1.084       .  S
C488        C489   1.387       .  A
C488        C493   1.392       .  A
C488        C711   1.469       .  S
C489        C490   1.402       .  A
C489        H494   1.084       .  S
C490        C491   1.419       .  A
C490        C510   1.486       .  S
C491        C492   1.421       .  A
C491        H495   1.083       .  S
C492        C493   1.404       .  A
C492        C665   1.488       .  S
C493        H496   1.083       .  S
O497       Ni505   1.915       .  S
O497        C507   1.284       .  A
O498       Ni505   1.929       .  S
O498        C508   1.281       .  A
O499       Ni505   1.924       .  S
O499        C509   1.280       .  A
O500       Ni505   1.911       .  S
O500        C510   1.284       .  A
O501       Ni506   1.927       .  S
O501        C510   1.280       .  A
O502       Ni506   1.917       .  S
O502        C509   1.285       .  A
O503       Ni506   1.917       .  S
O503        C508   1.285       .  A
O504       Ni506   1.926       .  S
O504        C507   1.280       .  A
Ni505      Ni506   2.384       .  S
C508        C559   1.489       .  S
C511        C512   1.391       .  A
C511        C516   1.393       .  A
C511        C698   1.473       .  S
C512        C513   1.403       .  A
C512        H517   1.084       .  S
C513        C514   1.419       .  A
C513        C539   1.488       .  S
C514        C515   1.419       .  A
C514        H518   1.083       .  S
C515        C516   1.405       .  A
C515        C664   1.490       .  S
C516        H519   1.083       .  S
C520       C1277   1.392       .  A
C520        C525   1.390       .  A
C520        C701   1.472       .  S
C521       C1276   1.390   1_545  A
C521        C522   1.403       .  A
C521        H526   1.083       .  S
C522        C523   1.420       .  A
C522        C554   1.487       .  S
C523        C524   1.419       .  A
C523        H527   1.083       .  S
C524       C1281   1.403       .  A
C525       C1280   1.403       .  A
C525        H528   1.084       .  S
O529       Ni537   1.918       .  S
O529        C539   1.285       .  A
O530       Ni537   1.928       .  S
O530        C540   1.281       .  A
O531       Ni537   1.928       .  S
O531        C541   1.281       .  A
O532       Ni537   1.917       .  S
O532        C542   1.285       .  A
O533       Ni538   1.924       .  S
O533        C542   1.280       .  A
O534       Ni538   1.916       .  S
O534        C541   1.285       .  A
O535       Ni538   1.917       .  S
O535        C540   1.284       .  A
O536       Ni538   1.926       .  S
O536        C539   1.280       .  A
Ni537      Ni538   2.384       .  S
C540       C1986   1.487       .  S
C541        C568   1.488       .  S
O543       Ni551   1.918       .  S
O543        C553   1.285       .  A
O544       Ni551   1.927       .  S
O544        C554   1.280       .  A
O545       Ni551   1.925       .  S
O545        C555   1.281       .  A
O546       Ni551   1.919       .  S
O546        C556   1.285       .  A
O547       Ni552   1.922       .  S
O547        C556   1.279       .  A
O548       Ni552   1.911       .  S
O548        C555   1.283       .  A
O549       Ni552   1.915       .  S
O549        C554   1.285       .  A
O550       Ni552   1.925       .  S
O550        C553   1.280       .  A
Ni551      Ni552   2.385       .  S
C553       C1975   1.487       .  S
C557        C558   1.390       .  A
C557        C691   1.469       .  S
C558        C559   1.404       .  A
C558        H563   1.083       .  S
C559        C560   1.419       .  A
C560        H564   1.084       .  S
C561        C562   1.404       .  A
C561        C635   1.490       .  S
C562        H565   1.083       .  S
C566        C567   1.389       .  A
C566        C688   1.470       .  S
C567        C568   1.403       .  A
C567        H572   1.084       .  S
C568        C569   1.419       .  A
C569        H573   1.084       .  S
C570        C571   1.406       .  A
C570        C603   1.492       .  S
C571        H574   1.083       .  S
C575       C2088   1.392       .  A
C575       C2092   1.388       .  A
C575        C678   1.468       .  S
C576       C2087   1.392       .  A
C576        C577   1.406   1_655  A
C576       H2093   1.084       .  S
C577        C578   1.419       .  A
C578        C579   1.419       .  A
C578        H582   1.083       .  S
C579        C580   1.402       .  A
C579        C649   1.485       .  S
C580       C2087   1.388   1_455  A
C580        H583   1.084       .  S
H581       C2088   1.084       .  S
C584        C585   1.390       .  A
C584        C589   1.391       .  A
C584        C681   1.469       .  S
C585        C586   1.404       .  A
C585        H590   1.084       .  S
C586        C587   1.420       .  A
C586        C605   1.487       .  S
C587        C588   1.419       .  A
C587        H591   1.083       .  S
C588        C589   1.405       .  A
C588        C666   1.490       .  S
C589        H592   1.084       .  S
O593       Ni601   1.923       .  S
O593        C603   1.286       .  A
O594       Ni601   1.931       .  S
O594        C604   1.282       .  A
O595       Ni601   1.925       .  S
O595        C605   1.280       .  A
O596       Ni601   1.915       .  S
O596        C606   1.284       .  A
O597       Ni602   1.927       .  S
O597        C606   1.281       .  A
O598       Ni602   1.919       .  S
O598        C605   1.285       .  A
O599       Ni602   1.920       .  S
O599        C604   1.285       .  A
O600       Ni602   1.928       .  S
O600        C603   1.281       .  A
Ni601      Ni602   2.383       .  S
C606       C1201   1.487       .  S
C607        C608   1.390       .  A
C607        C612   1.391       .  A
C607        C671   1.470       .  S
C608       C1365   1.405       .  A
C608        H613   1.083       .  S
C609       C1364   1.405       .  A
C609        C610   1.419       .  A
C609        C652   1.490       .  S
C610       C1367   1.420       .  A
C610        H614   1.083       .  S
C611       C1366   1.420       .  A
C611        C612   1.404       .  A
C612        H615   1.084       .  S
C616        C617   1.392       .  A
C616        C621   1.391       .  A
C616        C668   1.471       .  S
C617        C618   1.405       .  A
C617        H622   1.083       .  S
C618        C619   1.420       .  A
C618        C663   1.490       .  S
C619        C620   1.420       .  A
C619        H623   1.083       .  S
C620        C621   1.404       .  A
C620        C637   1.490       .  S
C621        H624   1.084       .  S
O625       Ni633   1.926       .  S
O625        C635   1.280       .  A
O626       Ni633   1.919       .  S
O626        C636   1.285       .  A
O627       Ni633   1.918       .  S
O627        C637   1.285       .  A
O628       Ni633   1.926       .  S
O628        C638   1.280       .  A
O629       Ni634   1.919       .  S
O629        C638   1.285       .  A
O630       Ni634   1.929       .  S
O630        C637   1.281       .  A
O631       Ni634   1.934       .  S
O631        C636   1.282       .  A
O632       Ni634   1.922       .  S
O632        C635   1.286       .  A
Ni633      Ni634   2.383       .  S
O639       Ni647   1.924       .  S
O639        C649   1.280       .  A
O640       Ni647   1.912       .  S
O640        C650   1.284       .  A
O641       Ni647   1.917       .  S
O641        C651   1.285       .  A
O642       Ni647   1.929       .  S
O642        C652   1.281       .  A
O643       Ni648   1.917       .  S
O643        C652   1.285       .  A
O644       Ni648   1.926       .  S
O644        C651   1.280       .  A
O645       Ni648   1.924       .  S
O645        C650   1.280       .  A
O646       Ni648   1.915       .  S
O646        C649   1.285       .  A
Ni647      Ni648   2.384       .  S
C650       C1210   1.485       .  S
O653       Ni661   1.927       .  S
O653        C663   1.281       .  A
O654       Ni661   1.918       .  S
O654        C664   1.284       .  A
O655       Ni661   1.922       .  S
O655        C665   1.286       .  A
O656       Ni661   1.931       .  S
O656        C666   1.282       .  A
O657       Ni662   1.916       .  S
O657        C666   1.284       .  A
O658       Ni662   1.924       .  S
O658        C665   1.280       .  A
O659       Ni662   1.930       .  S
O659        C664   1.282       .  A
O660       Ni662   1.922       .  S
O660        C663   1.286       .  A
Ni661      Ni662   2.383       .  S
C667        C668   1.408       .  A
C667        C672   1.403       .  A
C667       Br674   1.930       .  S
C668        C669   1.408       .  A
C669        C670   1.404       .  A
C669       Br676   1.929       .  S
C670        C671   1.408       .  A
C670       Br675   1.931       .  S
C671        C672   1.408       .  A
C672       Br673   1.931       .  S
C677        C678   1.408       .  A
C677        C682   1.404       .  A
C677       Br684   1.930       .  S
C678        C679   1.407       .  A
C679        C680   1.402       .  A
C679       Br686   1.930       .  S
C680        C681   1.407       .  A
C680       Br685   1.931       .  S
C681        C682   1.408       .  A
C682       Br683   1.928       .  S
C687        C692   1.401       .  A
C687       Br694   1.929       .  S
C688        C689   1.409       .  A
C689        C690   1.405       .  A
C689       Br696   1.930       .  S
C690        C691   1.408       .  A
C690       Br695   1.931       .  S
C692       Br693   1.931       .  S
C697        C698   1.410       .  A
C697        C702   1.404       .  A
C697       Br704   1.933       .  S
C698        C699   1.411       .  A
C699        C700   1.403       .  A
C699       Br706   1.933       .  S
C700        C701   1.409       .  A
C700       Br705   1.933       .  S
C701        C702   1.410       .  A
C702      Br1459   1.933       .  S
Br703      C1458   1.934       .  S
C707        C708   1.409       .  A
C707        C712   1.403       .  A
C707       Br714   1.932       .  S
C708        C709   1.410       .  A
C709        C710   1.402       .  A
C709       Br716   1.934       .  S
C710        C711   1.410       .  A
C710       Br715   1.934       .  S
C711        C712   1.409       .  A
C712       Br713   1.932       .  S
C717       C2230   1.408   1_556  A
C717        C722   1.400       .  A
C717       Br724   1.933       .  S
C718       C2229   1.408   1_554  A
C719        C720   1.406       .  A
C719       Br726   1.931       .  S
C720       Br725   1.930       .  S
C721       C2234   1.408   1_554  A
C722       C2233   1.408   1_556  A
C722       Br723   1.933       .  S
C727       C1106   1.408       .  A
C727        C732   1.402       .  A
C727       Br734   1.931       .  S
C728       C1105   1.409       .  A
C728        C729   1.407   1_554  A
C729        C730   1.401       .  A
C729       Br736   1.931       .  S
C730        C731   1.408   1_556  A
C730       Br735   1.933       .  S
C731       C1110   1.408       .  A
C732       C1109   1.408       .  A
C732       Br733   1.931       .  S
C737        C738   1.409       .  A
C737        C742   1.406       .  A
C737      Br2256   1.931       .  S
C738        C739   1.409       .  A
C738       C1909   1.472       .  S
C739        C740   1.403       .  A
C739       Br746   1.932       .  S
C740        C741   1.408       .  A
C740       Br745   1.932       .  S
C741        C742   1.410       .  A
C742       Br743   1.931       .  S
Br744      C2249   1.931       .  S
C747        C748   1.409       .  A
C747        C752   1.402       .  A
C747       Br754   1.932       .  S
C748        C749   1.408       .  A
C749        C750   1.403       .  A
C749       Br756   1.931       .  S
C750        C751   1.409       .  A
C750       Br755   1.932       .  S
C751        C752   1.409       .  A
C752      Br1509   1.933       .  S
Br753      C1508   1.933       .  S
C757        C758   1.390       .  A
C757        C762   1.390       .  A
C757       C1126   1.468       .  S
C758       C2271   1.403       .  A
C758        H763   1.083       .  S
C759       C2270   1.403       .  A
C759        C760   1.419       .  A
C759        C920   1.486       .  S
C760       C2273   1.418       .  A
C760        H764   1.084       .  S
C761       C2272   1.418       .  A
C761        C762   1.403       .  A
C761        C817   1.487       .  S
C762        H765   1.083       .  S
C766       C1129   1.469       .  S
C767        C768   1.403       .  A
C768        C769   1.419       .  A
C768        C806   1.486       .  S
C769        C770   1.419       .  A
C769        H773   1.084       .  S
C770        C771   1.404       .  A
C770        C885   1.487       .  S
C771        H774   1.083       .  S
C775        C776   1.391   1_655  A
C775        C780   1.390   1_655  A
C775       C2628   1.470       .  S
C776        C777   1.405       .  A
C776        H781   1.083       .  S
C777        C778   1.422       .  A
C777       C1014   1.493       .  S
C778        C779   1.422       .  A
C778        H782   1.084       .  S
C779        C780   1.404       .  A
C779        C818   1.490       .  S
C780       H2295   1.083   1_455  S
H783       C2292   1.083       .  S
C784        C785   1.393       .  A
C784        C789   1.390       .  A
C784       C1119   1.470       .  S
C785        H790   1.083       .  S
C786        C787   1.419       .  A
C786        C982   1.492   1_545  S
C787        H791   1.084   1_545  S
C788        C789   1.403       .  A
C788        C805   1.488       .  S
C789        H792   1.083       .  S
O793       Ni801   1.928       .  S
O793        C803   1.281       .  A
O794       Ni801   1.921       .  S
O794        C804   1.285       .  A
O795       Ni801   1.919       .  S
O795        C805   1.285       .  A
O796       Ni801   1.927       .  S
O796        C806   1.280       .  A
O797       Ni802   1.912       .  S
O797        C806   1.284       .  A
O799       Ni802   1.926       .  S
O799        C804   1.280       .  A
O800       Ni802   1.913       .  S
O800        C803   1.284       .  A
Ni801      Ni802   2.384       .  S
C803        C902   1.487       .  S
C804        C989   1.489       .  S
O807       Ni815   1.928       .  S
O807       C2329   1.281       .  A
O808      Ni2327   1.920   1_455  S
O808        C818   1.286       .  A
O809      Ni2327   1.915   1_455  S
O809        C819   1.284       .  A
O810       Ni815   1.921       .  S
O810       C2332   1.279       .  A
O811       Ni816   1.918       .  S
O811        C820   1.285       .  A
O812       Ni816   1.930       .  S
O812        C819   1.282       .  A
O813       Ni816   1.927       .  S
O813        C818   1.280       .  A
O814       Ni816   1.915       .  S
O814        C817   1.284       .  A
Ni815      O2320   1.920       .  S
Ni815      O2321   1.915       .  S
Ni815     Ni2328   2.384       .  S
Ni816     Ni2327   2.384   1_455  S
C817       O2319   1.281       .  A
C819        C955   1.490       .  S
C820        C861   1.485       .  S
C820       O2322   1.279       .  A
C821        C822   1.390       .  A
C821       C1204   1.389       .  A
C821       C1106   1.465       .  S
C822        C823   1.404       .  A
C823       C1202   1.418       .  A
C824       C1201   1.418       .  A
C824        C825   1.418   1_556  A
C824        H828   1.083       .  S
C825        C826   1.403       .  A
C825        C934   1.485       .  S
C826       C1199   1.389   1_554  A
C826        H829   1.084       .  S
C830        C831   1.388       .  A
C830       C1213   1.388       .  A
C830       C1109   1.465       .  S
C831        C832   1.403       .  A
C832        C833   1.419       .  A
C833       C1212   1.419       .  A
C833        H837   1.083       .  S
C834       C1211   1.419   1_554  A
C834        C835   1.403       .  A
C834        C887   1.486       .  S
C835       C1208   1.388       .  A
C835        H838   1.084       .  S
C839       C1218   1.391       .  A
C839        C844   1.392       .  A
C839       C1096   1.469       .  S
C840       C1217   1.391       .  A
C840        C841   1.403       .  A
C840       H2357   1.084   1_455  S
C841        C842   1.418       .  A
C841       C2443   1.486   1_455  S
C842       C1221   1.419   1_554  A
C842        H846   1.083   1_554  S
C843       C1220   1.419       .  A
C843        C844   1.404       .  A
C843       C1016   1.489       .  S
C844        H847   1.084       .  S
H845       C2352   1.084       .  S
C848        C849   1.391       .  A
C848       C1231   1.390       .  A
C848       C1099   1.469       .  S
C849        C850   1.403       .  A
C849        H854   1.083       .  S
C850        C851   1.419       .  A
C850       C1029   1.487       .  S
C851       C1230   1.418       .  A
C851        H855   1.083       .  S
C852       C1229   1.418       .  A
C852        C853   1.404       .  A
C852       C2430   1.485   1_455  S
C853       C1226   1.390       .  A
C853       H2368   1.084   1_455  S
H856       C2365   1.084       .  S
C857        C858   1.390       .  A
C857        C862   1.391       .  A
C857       C1086   1.467       .  S
C858       C2371   1.403       .  A
C858        H863   1.084       .  S
C859       C2370   1.403       .  A
C859        C860   1.417       .  A
C859        C933   1.485       .  S
C860       C2373   1.418       .  A
C860        H864   1.083       .  S
C861       C2372   1.418   1_455  A
C861        C862   1.403       .  A
C862        H865   1.084       .  S
C866        C867   1.387       .  A
C866        C871   1.391       .  A
C866       C1089   1.467       .  S
C867        C868   1.402       .  A
C867        H872   1.084       .  S
C868        C869   1.420       .  A
C868        C888   1.486       .  S
C869        C870   1.421       .  A
C869        H873   1.083       .  S
C870        C871   1.404       .  A
C870       C1043   1.489       .  S
C871        H874   1.084       .  S
O875       Ni883   1.916       .  S
O875        C885   1.284       .  A
O876       Ni883   1.928       .  S
O876        C886   1.281       .  A
O877       Ni883   1.925       .  S
O877        C887   1.280       .  A
O878       Ni883   1.912       .  S
O878        C888   1.284       .  A
O879       Ni884   1.926       .  S
O879        C888   1.280       .  A
O880       Ni884   1.916       .  S
O880        C887   1.285       .  A
O881       Ni884   1.916       .  S
O881        C886   1.285       .  A
O882       Ni884   1.927       .  S
O882        C885   1.281       .  A
Ni883      Ni884   2.384       .  S
C886        C937   1.488       .  S
C889        C890   1.391       .  A
C889        C894   1.393       .  A
C889       C1076   1.471       .  S
C890        C891   1.402       .  A
C890        H895   1.084       .  S
C891        C892   1.418       .  A
C891        C917   1.487       .  S
C892        C893   1.418       .  A
C892        H896   1.083       .  S
C893        C894   1.405       .  A
C893       C1042   1.488       .  S
C894        H897   1.083       .  S
C898        C903   1.389   1_565  A
C898       C1079   1.470       .  S
C899        C900   1.405       .  A
C899        H904   1.083       .  S
C900        C901   1.419       .  A
C900        C932   1.488       .  S
C901        C902   1.418       .  A
C901        H905   1.083       .  S
C903        H906   1.084   1_545  S
O907       Ni915   1.916       .  S
O907        C917   1.285       .  A
O908       Ni915   1.926       .  S
O908        C918   1.280       .  A
O909       Ni915   1.929       .  S
O909        C919   1.281       .  A
O910       Ni915   1.918       .  S
O910        C920   1.285       .  A
O911       Ni916   1.922       .  S
O911        C920   1.280       .  A
O912       Ni916   1.914       .  S
O912        C919   1.284       .  A
O913       Ni916   1.915       .  S
O913        C918   1.284       .  A
O914       Ni916   1.925       .  S
O914        C917   1.280       .  A
Ni915      Ni916   2.385       .  S
C918       C2364   1.485       .  S
C919        C946   1.488       .  S
O921       Ni929   1.918       .  S
O921        C931   1.285       .  A
O922       Ni929   1.928       .  S
O922        C932   1.281       .  A
O923       Ni929   1.924       .  S
O923        C933   1.280       .  A
O924       Ni929   1.917       .  S
O924        C934   1.285       .  A
O925       Ni930   1.922       .  S
O925        C934   1.280       .  A
O926       Ni930   1.912       .  S
O926        C933   1.284       .  A
O927       Ni930   1.915       .  S
O927        C932   1.284       .  A
O928       Ni930   1.925       .  S
O928        C931   1.280       .  A
Ni929      Ni930   2.385       .  S
C931       C2353   1.486       .  S
C935        C936   1.389       .  A
C935       C1318   1.391   1_554  A
C935       C1069   1.468       .  S
C936        C937   1.404       .  A
C936        H941   1.083       .  S
C937        C938   1.419       .  A
C938       C1317   1.421   1_554  A
C938        H942   1.084   1_554  S
C939       C1316   1.421       .  A
C939        C940   1.404       .  A
C939       C1013   1.490       .  S
C940       C1313   1.391       .  A
C940        H943   1.083       .  S
C944        C945   1.389       .  A
C944       C1327   1.393   1_554  A
C944       C1066   1.469       .  S
C945        C946   1.403       .  A
C945        H950   1.084       .  S
C946        C947   1.419   1_554  A
C947       C1326   1.421       .  A
C947        H951   1.084       .  S
C948       C1325   1.421       .  A
C948        C949   1.406       .  A
C948        C981   1.491       .  S
C949       C1322   1.393       .  A
C949        H952   1.083       .  S
C953       C2466   1.392       .  A
C953       C2470   1.388       .  A
C953       C1056   1.470       .  S
C954       C2465   1.392       .  A
C954        C955   1.406   1_655  A
C954       H2471   1.084       .  S
C955        C956   1.419       .  A
C956        C957   1.419       .  A
C956        H960   1.083       .  S
C957        C958   1.403       .  A
C957       C1027   1.486       .  S
C958       C2465   1.388   1_455  A
C958        H961   1.084       .  S
H959       C2466   1.084       .  S
C962        C963   1.390       .  A
C962        C967   1.391       .  A
C962       C1059   1.470       .  S
C963        C964   1.404       .  A
C963        H968   1.084       .  S
C964        C965   1.420       .  A
C964        C983   1.489       .  S
C965        C966   1.420       .  A
C965        H969   1.083       .  S
C966        C967   1.405       .  A
C966       C1044   1.491       .  S
C967        H970   1.084       .  S
O971       Ni979   1.923       .  S
O971        C981   1.286       .  A
O972       Ni979   1.931       .  S
O972        C982   1.282       .  A
O973       Ni979   1.926       .  S
O973        C983   1.280       .  A
O974       Ni979   1.918       .  S
O974        C984   1.285       .  A
O975       Ni980   1.927       .  S
O975        C984   1.281       .  A
O976       Ni980   1.918       .  S
O976        C983   1.285       .  A
O977       Ni980   1.919       .  S
O977        C982   1.284       .  A
O978       Ni980   1.927       .  S
O978        C981   1.281       .  A
Ni979      Ni980   2.383       .  S
C985        C986   1.391       .  A
C985        C990   1.392       .  A
C985       C1049   1.472       .  S
C986        H991   1.083       .  S
C987        C988   1.420       .  A
C987       C1030   1.490   1_545  S
C988        H992   1.083   1_545  S
C989        C990   1.404       .  A
C990        H993   1.084       .  S
C994        C995   1.393       .  A
C994        C999   1.392       .  A
C994       C1046   1.473       .  S
C995        C996   1.405       .  A
C995       H1000   1.083       .  S
C996        C997   1.420       .  A
C996       C1041   1.490       .  S
C997        C998   1.419       .  A
C997       H1001   1.083       .  S
C998        C999   1.404       .  A
C998       C1015   1.490       .  S
C999       H1002   1.084       .  S
O1003     Ni1011   1.926       .  S
O1003      C1013   1.280       .  A
O1004     Ni1011   1.919       .  S
O1004      C1014   1.285       .  A
O1005     Ni1011   1.919       .  S
O1005      C1015   1.285       .  A
O1006     Ni1011   1.927       .  S
O1006      C1016   1.281       .  A
O1007     Ni1012   1.919       .  S
O1007      C1016   1.285       .  A
O1008     Ni1012   1.929       .  S
O1008      C1015   1.281       .  A
O1009     Ni1012   1.933       .  S
O1009      C1014   1.282       .  A
O1010     Ni1012   1.922       .  S
O1010      C1013   1.286       .  A
Ni1011    Ni1012   2.383       .  S
O1017     Ni1025   1.925       .  S
O1017      C1027   1.280       .  A
O1018     Ni1025   1.913       .  S
O1018      C1028   1.284       .  A
O1019     Ni1025   1.917       .  S
O1019      C1029   1.285       .  A
O1020     Ni1025   1.929       .  S
O1020      C1030   1.281       .  A
O1021     Ni1026   1.916       .  S
O1021      C1030   1.284       .  A
O1022     Ni1026   1.925       .  S
O1022      C1029   1.280       .  A
O1023     Ni1026   1.924       .  S
O1023      C1028   1.280       .  A
O1024     Ni1026   1.915       .  S
O1024      C1027   1.285       .  A
Ni1025    Ni1026   2.384       .  S
O1031     Ni1039   1.928       .  S
O1031      C1041   1.281       .  A
O1032     Ni1039   1.918       .  S
O1032      C1042   1.284       .  A
O1033     Ni1039   1.921       .  S
O1033      C1043   1.286       .  A
O1034     Ni1039   1.931       .  S
O1034      C1044   1.282       .  A
O1035     Ni1040   1.917       .  S
O1035      C1044   1.284       .  A
O1036     Ni1040   1.925       .  S
O1036      C1043   1.280       .  A
O1037     Ni1040   1.927       .  S
O1037      C1042   1.281       .  A
O1038     Ni1040   1.920       .  S
O1038      C1041   1.285       .  A
Ni1039    Ni1040   2.383       .  S
C1045      C1046   1.409       .  A
C1045      C1050   1.404       .  A
C1045     Br1052   1.930       .  S
C1046      C1047   1.409       .  A
C1047      C1048   1.405       .  A
C1047     Br1054   1.931       .  S
C1048      C1049   1.409       .  A
C1048     Br1053   1.932       .  S
C1049      C1050   1.408       .  A
C1050     Br1051   1.931       .  S
C1055      C1056   1.409       .  A
C1055      C1060   1.404       .  A
C1055     Br1062   1.931       .  S
C1056      C1057   1.408       .  A
C1057      C1058   1.403       .  A
C1057     Br1064   1.931       .  S
C1058      C1059   1.408       .  A
C1058     Br1063   1.931       .  S
C1059      C1060   1.408       .  A
C1060     Br1061   1.928       .  S
C1065      C1444   1.407       .  A
C1065      C1070   1.402       .  A
C1065     Br1072   1.928       .  S
C1066      C1443   1.407   1_554  A
C1066      C1067   1.409       .  A
C1067      C1068   1.405       .  A
C1067     Br1074   1.931       .  S
C1068      C1069   1.408       .  A
C1068     Br1073   1.930       .  S
C1069      C1448   1.407   1_554  A
C1070      C1447   1.407       .  A
C1070     Br1071   1.930       .  S
C1075      C1076   1.410       .  A
C1075      C1080   1.403       .  A
C1075     Br1082   1.933       .  S
C1076      C1077   1.410       .  A
C1077      C1078   1.402       .  A
C1077     Br1084   1.933       .  S
C1078      C1079   1.409       .  A
C1078     Br1083   1.934       .  S
C1079      C1080   1.410       .  A
C1085      C1086   1.409       .  A
C1085      C1090   1.402       .  A
C1085     Br1092   1.931       .  S
C1086      C1087   1.409       .  A
C1087      C1088   1.402       .  A
C1087     Br1094   1.933       .  S
C1088      C1089   1.409       .  A
C1088     Br1093   1.933       .  S
C1089      C1090   1.408       .  A
C1090     Br1091   1.932       .  S
C1095      C2608   1.408       .  A
C1095      C1100   1.400       .  A
C1095     Br1102   1.933       .  S
C1096      C2607   1.408       .  A
C1096      C1475   1.409       .  A
C1097      C1474   1.409       .  A
C1097      C1098   1.406       .  A
C1097     Br1104   1.931       .  S
C1098      C1477   1.409       .  A
C1098     Br1103   1.931       .  S
C1099      C1476   1.409       .  A
C1099      C2612   1.408       .  A
C1100      C2611   1.408       .  A
C1100     Br1101   1.933       .  S
C1105      C1110   1.403       .  A
C1105     Br1112   1.931       .  S
C1106      C1107   1.407       .  A
C1107      C1108   1.401       .  A
C1107     Br1114   1.930       .  S
C1108      C1109   1.408       .  A
C1108     Br1113   1.932       .  S
C1110     Br1111   1.931       .  S
C1115      C1116   1.408       .  A
C1115      C1120   1.405       .  A
C1115     Br2634   1.929       .  S
C1116      C1117   1.408       .  A
C1116      C2287   1.470       .  S
C1117      C1118   1.403       .  A
C1117     Br1124   1.931       .  S
C1118      C1119   1.408       .  A
C1118     Br1123   1.930       .  S
C1119      C1120   1.409       .  A
C1120     Br1121   1.930       .  S
Br1122     C2627   1.929       .  S
C1125      C1126   1.409       .  A
C1125      C1130   1.402       .  A
C1125     Br1132   1.933       .  S
C1126      C1127   1.408       .  A
C1127      C1128   1.402       .  A
C1127     Br1134   1.932       .  S
C1128      C1129   1.409       .  A
C1128     Br1133   1.933       .  S
C1129      C1130   1.410       .  A
C1135      C1136   1.390       .  A
C1135      C1140   1.390       .  A
C1135      C1504   1.468       .  S
C1136      C2649   1.403       .  A
C1136      H1141   1.083       .  S
C1137      C2648   1.403       .  A
C1137      C1138   1.419       .  A
C1137      C1298   1.486       .  S
C1138      C2651   1.418       .  A
C1138      H1142   1.084       .  S
C1139      C2650   1.418       .  A
C1139      C1140   1.403       .  A
C1139      C1195   1.487       .  S
C1140      H1143   1.083       .  S
C1144      C1507   1.469       .  S
C1145      C1146   1.403       .  A
C1146      C1147   1.419       .  A
C1146      C1184   1.486       .  S
C1147      C1148   1.419       .  A
C1147      H1151   1.084       .  S
C1148      C1149   1.404       .  A
C1148      C1263   1.487       .  S
C1149      H1152   1.083       .  S
C1153      C1154   1.391   1_655  A
C1153      C1158   1.390   1_655  A
C1153      C3006   1.470       .  S
C1154      C1155   1.405       .  A
C1154      H1159   1.083       .  S
C1155      C1156   1.422       .  A
C1155      C1392   1.493       .  S
C1156      C1157   1.422       .  A
C1156      H1160   1.084       .  S
C1157      C1158   1.404       .  A
C1157      C1196   1.490       .  S
C1158      H2673   1.083   1_455  S
H1161      C2670   1.083       .  S
C1162      C1163   1.393       .  A
C1162      C1167   1.390       .  A
C1162      C1497   1.470       .  S
C1163      H1168   1.083       .  S
C1164      C1165   1.419       .  A
C1164      C1360   1.492   1_545  S
C1165      H1169   1.084   1_545  S
C1166      C1167   1.403       .  A
C1166      C1183   1.488       .  S
C1167      H1170   1.083       .  S
O1171     Ni1179   1.928       .  S
O1171      C1181   1.281       .  A
O1172     Ni1179   1.921       .  S
O1172      C1182   1.285       .  A
O1173     Ni1179   1.919       .  S
O1173      C1183   1.285       .  A
O1174     Ni1179   1.927       .  S
O1174      C1184   1.280       .  A
O1175     Ni1180   1.912       .  S
O1175      C1184   1.284       .  A
O1177     Ni1180   1.926       .  S
O1177      C1182   1.280       .  A
O1178     Ni1180   1.913       .  S
O1178      C1181   1.284       .  A
Ni1179    Ni1180   2.384       .  S
C1181      C1280   1.487       .  S
C1182      C1367   1.489       .  S
O1185     Ni1193   1.928       .  S
O1185      C2707   1.281       .  A
O1186     Ni2705   1.920   1_455  S
O1186      C1196   1.286       .  A
O1187     Ni2705   1.915   1_455  S
O1187      C1197   1.284       .  A
O1188     Ni1193   1.921       .  S
O1188      C2710   1.279       .  A
O1189     Ni1194   1.918       .  S
O1189      C1198   1.285       .  A
O1190     Ni1194   1.930       .  S
O1190      C1197   1.282       .  A
O1191     Ni1194   1.927       .  S
O1191      C1196   1.280       .  A
O1192     Ni1194   1.915       .  S
O1192      C1195   1.284       .  A
Ni1193     O2698   1.920       .  S
Ni1193     O2699   1.915       .  S
Ni1193    Ni2706   2.384       .  S
Ni1194    Ni2705   2.384   1_455  S
C1195      O2697   1.281       .  A
C1197      C1333   1.490       .  S
C1198      C1239   1.485       .  S
C1198      O2700   1.279       .  A
C1199      C1200   1.390       .  A
C1199      C1484   1.465       .  S
C1200      C1201   1.404       .  A
C1202      C1203   1.418       .  A
C1202      H1206   1.083       .  S
C1203      C1204   1.403       .  A
C1203      C1312   1.485       .  S
C1204      H1207   1.084       .  S
C1208      C1209   1.388   1_554  A
C1208      C1487   1.465       .  S
C1209      C1210   1.403       .  A
C1210      C1211   1.419       .  A
C1211      H1215   1.083       .  S
C1212      C1213   1.403       .  A
C1212      C1265   1.486       .  S
C1213      H1216   1.084       .  S
C1217      C1222   1.392   1_554  A
C1217      C1474   1.469       .  S
C1218      C1219   1.403       .  A
C1218      H2735   1.084   1_455  S
C1219      C1220   1.418       .  A
C1219      C2821   1.486   1_455  S
C1220      H1224   1.083       .  S
C1221      C1222   1.404       .  A
C1221      C1394   1.489       .  S
C1222      H1225   1.084       .  S
H1223      C2730   1.084       .  S
C1226      C1227   1.391   1_554  A
C1226      C1477   1.469       .  S
C1227      C1228   1.403       .  A
C1227      H1232   1.083       .  S
C1228      C1229   1.419   1_556  A
C1228      C1407   1.487       .  S
C1229      H1233   1.083   1_554  S
C1230      C1231   1.404       .  A
C1230      C2808   1.485   1_455  S
C1231      H2746   1.084   1_455  S
H1234      C2743   1.084       .  S
C1235      C1236   1.390       .  A
C1235      C1240   1.391       .  A
C1235      C1464   1.467       .  S
C1236      C2749   1.403       .  A
C1236      H1241   1.084       .  S
C1237      C2748   1.403       .  A
C1237      C1238   1.417       .  A
C1237      C1311   1.485       .  S
C1238      C2751   1.418       .  A
C1238      H1242   1.083       .  S
C1239      C2750   1.418   1_455  A
C1239      C1240   1.403       .  A
C1240      H1243   1.084       .  S
C1244      C1245   1.387       .  A
C1244      C1249   1.391       .  A
C1244      C1467   1.467       .  S
C1245      C1246   1.402       .  A
C1245      H1250   1.084       .  S
C1246      C1247   1.420       .  A
C1246      C1266   1.486       .  S
C1247      C1248   1.421       .  A
C1247      H1251   1.083       .  S
C1248      C1249   1.404       .  A
C1248      C1421   1.489       .  S
C1249      H1252   1.084       .  S
O1253     Ni1261   1.916       .  S
O1253      C1263   1.284       .  A
O1254     Ni1261   1.928       .  S
O1254      C1264   1.281       .  A
O1255     Ni1261   1.925       .  S
O1255      C1265   1.280       .  A
O1256     Ni1261   1.912       .  S
O1256      C1266   1.284       .  A
O1257     Ni1262   1.926       .  S
O1257      C1266   1.280       .  A
O1258     Ni1262   1.916       .  S
O1258      C1265   1.285       .  A
O1259     Ni1262   1.916       .  S
O1259      C1264   1.285       .  A
O1260     Ni1262   1.927       .  S
O1260      C1263   1.281       .  A
Ni1261    Ni1262   2.384       .  S
C1264      C1315   1.488       .  S
C1267      C1268   1.391       .  A
C1267      C1272   1.393       .  A
C1267      C1454   1.471       .  S
C1268      C1269   1.402       .  A
C1268      H1273   1.084       .  S
C1269      C1270   1.418       .  A
C1269      C1295   1.487       .  S
C1270      C1271   1.418       .  A
C1270      H1274   1.083       .  S
C1271      C1272   1.405       .  A
C1271      C1420   1.488       .  S
C1272      H1275   1.083       .  S
C1276      C1281   1.389   1_565  A
C1276      C1457   1.470       .  S
C1277      C1278   1.405       .  A
C1277      H1282   1.083       .  S
C1278      C1279   1.419       .  A
C1278      C1310   1.488       .  S
C1279      C1280   1.418       .  A
C1279      H1283   1.083       .  S
C1281      H1284   1.084   1_545  S
O1285     Ni1293   1.916       .  S
O1285      C1295   1.285       .  A
O1286     Ni1293   1.926       .  S
O1286      C1296   1.280       .  A
O1287     Ni1293   1.929       .  S
O1287      C1297   1.281       .  A
O1288     Ni1293   1.918       .  S
O1288      C1298   1.285       .  A
O1289     Ni1294   1.922       .  S
O1289      C1298   1.280       .  A
O1290     Ni1294   1.914       .  S
O1290      C1297   1.284       .  A
O1291     Ni1294   1.915       .  S
O1291      C1296   1.284       .  A
O1292     Ni1294   1.925       .  S
O1292      C1295   1.280       .  A
Ni1293    Ni1294   2.385       .  S
C1296      C2742   1.485       .  S
C1297      C1324   1.488       .  S
O1299     Ni1307   1.918       .  S
O1299      C1309   1.285       .  A
O1300     Ni1307   1.928       .  S
O1300      C1310   1.281       .  A
O1301     Ni1307   1.924       .  S
O1301      C1311   1.280       .  A
O1302     Ni1307   1.917       .  S
O1302      C1312   1.285       .  A
O1303     Ni1308   1.922       .  S
O1303      C1312   1.280       .  A
O1304     Ni1308   1.912       .  S
O1304      C1311   1.284       .  A
O1305     Ni1308   1.915       .  S
O1305      C1310   1.284       .  A
O1306     Ni1308   1.925       .  S
O1306      C1309   1.280       .  A
Ni1307    Ni1308   2.385       .  S
C1309      C2731   1.486       .  S
C1313      C1314   1.389       .  A
C1313      C1447   1.468       .  S
C1314      C1315   1.404       .  A
C1314      H1319   1.083       .  S
C1315      C1316   1.419       .  A
C1316      H1320   1.084       .  S
C1317      C1318   1.404       .  A
C1317      C1391   1.490       .  S
C1318      H1321   1.083       .  S
C1322      C1323   1.389       .  A
C1322      C1444   1.469       .  S
C1323      C1324   1.403       .  A
C1323      H1328   1.084       .  S
C1324      C1325   1.419       .  A
C1325      H1329   1.084       .  S
C1326      C1327   1.406       .  A
C1326      C1359   1.491       .  S
C1327      H1330   1.083       .  S
C1331      C2844   1.392       .  A
C1331      C2848   1.388       .  A
C1331      C1434   1.470       .  S
C1332      C2843   1.392       .  A
C1332      C1333   1.406   1_655  A
C1332      H2849   1.084       .  S
C1333      C1334   1.419       .  A
C1334      C1335   1.419       .  A
C1334      H1338   1.083       .  S
C1335      C1336   1.403       .  A
C1335      C1405   1.486       .  S
C1336      C2843   1.388   1_455  A
C1336      H1339   1.084       .  S
H1337      C2844   1.084       .  S
C1340      C1341   1.390       .  A
C1340      C1345   1.391       .  A
C1340      C1437   1.470       .  S
C1341      C1342   1.404       .  A
C1341      H1346   1.084       .  S
C1342      C1343   1.420       .  A
C1342      C1361   1.489       .  S
C1343      C1344   1.420       .  A
C1343      H1347   1.083       .  S
C1344      C1345   1.405       .  A
C1344      C1422   1.491       .  S
C1345      H1348   1.084       .  S
O1349     Ni1357   1.923       .  S
O1349      C1359   1.286       .  A
O1350     Ni1357   1.931       .  S
O1350      C1360   1.282       .  A
O1351     Ni1357   1.926       .  S
O1351      C1361   1.280       .  A
O1352     Ni1357   1.918       .  S
O1352      C1362   1.285       .  A
O1353     Ni1358   1.927       .  S
O1353      C1362   1.281       .  A
O1354     Ni1358   1.918       .  S
O1354      C1361   1.285       .  A
O1355     Ni1358   1.919       .  S
O1355      C1360   1.284       .  A
O1356     Ni1358   1.927       .  S
O1356      C1359   1.281       .  A
Ni1357    Ni1358   2.383       .  S
C1363      C1364   1.391       .  A
C1363      C1368   1.392       .  A
C1363      C1427   1.472       .  S
C1364      H1369   1.083       .  S
C1365      C1366   1.420       .  A
C1365      C1408   1.490   1_545  S
C1366      H1370   1.083   1_545  S
C1367      C1368   1.404       .  A
C1368      H1371   1.084       .  S
C1372      C1373   1.393       .  A
C1372      C1377   1.392       .  A
C1372      C1424   1.473       .  S
C1373      C1374   1.405       .  A
C1373      H1378   1.083       .  S
C1374      C1375   1.420       .  A
C1374      C1419   1.490       .  S
C1375      C1376   1.419       .  A
C1375      H1379   1.083       .  S
C1376      C1377   1.404       .  A
C1376      C1393   1.490       .  S
C1377      H1380   1.084       .  S
O1381     Ni1389   1.926       .  S
O1381      C1391   1.280       .  A
O1382     Ni1389   1.919       .  S
O1382      C1392   1.285       .  A
O1383     Ni1389   1.919       .  S
O1383      C1393   1.285       .  A
O1384     Ni1389   1.927       .  S
O1384      C1394   1.281       .  A
O1385     Ni1390   1.919       .  S
O1385      C1394   1.285       .  A
O1386     Ni1390   1.929       .  S
O1386      C1393   1.281       .  A
O1387     Ni1390   1.933       .  S
O1387      C1392   1.282       .  A
O1388     Ni1390   1.922       .  S
O1388      C1391   1.286       .  A
Ni1389    Ni1390   2.383       .  S
O1395     Ni1403   1.925       .  S
O1395      C1405   1.280       .  A
O1396     Ni1403   1.913       .  S
O1396      C1406   1.284       .  A
O1397     Ni1403   1.917       .  S
O1397      C1407   1.285       .  A
O1398     Ni1403   1.929       .  S
O1398      C1408   1.281       .  A
O1399     Ni1404   1.916       .  S
O1399      C1408   1.284       .  A
O1400     Ni1404   1.925       .  S
O1400      C1407   1.280       .  A
O1401     Ni1404   1.924       .  S
O1401      C1406   1.280       .  A
O1402     Ni1404   1.915       .  S
O1402      C1405   1.285       .  A
Ni1403    Ni1404   2.384       .  S
O1409     Ni1417   1.928       .  S
O1409      C1419   1.281       .  A
O1410     Ni1417   1.918       .  S
O1410      C1420   1.284       .  A
O1411     Ni1417   1.921       .  S
O1411      C1421   1.286       .  A
O1412     Ni1417   1.931       .  S
O1412      C1422   1.282       .  A
O1413     Ni1418   1.917       .  S
O1413      C1422   1.284       .  A
O1414     Ni1418   1.925       .  S
O1414      C1421   1.280       .  A
O1415     Ni1418   1.927       .  S
O1415      C1420   1.281       .  A
O1416     Ni1418   1.920       .  S
O1416      C1419   1.285       .  A
Ni1417    Ni1418   2.383       .  S
C1423      C1424   1.409       .  A
C1423      C1428   1.404       .  A
C1423     Br1430   1.930       .  S
C1424      C1425   1.409       .  A
C1425      C1426   1.405       .  A
C1425     Br1432   1.931       .  S
C1426      C1427   1.409       .  A
C1426     Br1431   1.932       .  S
C1427      C1428   1.408       .  A
C1428     Br1429   1.931       .  S
C1433      C1434   1.409       .  A
C1433      C1438   1.404       .  A
C1433     Br1440   1.931       .  S
C1434      C1435   1.408       .  A
C1435      C1436   1.403       .  A
C1435     Br1442   1.931       .  S
C1436      C1437   1.408       .  A
C1436     Br1441   1.931       .  S
C1437      C1438   1.408       .  A
C1438     Br1439   1.928       .  S
C1443      C1448   1.402       .  A
C1443     Br1450   1.928       .  S
C1444      C1445   1.409       .  A
C1445      C1446   1.405       .  A
C1445     Br1452   1.931       .  S
C1446      C1447   1.408       .  A
C1446     Br1451   1.930       .  S
C1448     Br1449   1.930       .  S
C1453      C1454   1.410       .  A
C1453      C1458   1.403       .  A
C1453     Br1460   1.933       .  S
C1454      C1455   1.410       .  A
C1455      C1456   1.402       .  A
C1455     Br1462   1.933       .  S
C1456      C1457   1.409       .  A
C1456     Br1461   1.934       .  S
C1457      C1458   1.410       .  A
C1463      C1464   1.409       .  A
C1463      C1468   1.402       .  A
C1463     Br1470   1.931       .  S
C1464      C1465   1.409       .  A
C1465      C1466   1.402       .  A
C1465     Br1472   1.933       .  S
C1466      C1467   1.409       .  A
C1466     Br1471   1.933       .  S
C1467      C1468   1.408       .  A
C1468     Br1469   1.932       .  S
C1473      C2986   1.408   1_556  A
C1473      C1478   1.400       .  A
C1473     Br1480   1.933       .  S
C1474      C2985   1.408   1_554  A
C1475      C1476   1.406       .  A
C1475     Br1482   1.931       .  S
C1476     Br1481   1.931       .  S
C1477      C2990   1.408   1_554  A
C1478      C2989   1.408   1_556  A
C1478     Br1479   1.933       .  S
C1483      C1488   1.403       .  A
C1483     Br1490   1.931       .  S
C1484      C1485   1.407       .  A
C1485      C1486   1.401       .  A
C1485     Br1492   1.930       .  S
C1486      C1487   1.408   1_556  A
C1486     Br1491   1.932       .  S
C1488     Br1489   1.931       .  S
C1493      C1494   1.408       .  A
C1493      C1498   1.405       .  A
C1493     Br3012   1.929       .  S
C1494      C1495   1.408       .  A
C1494      C2665   1.470       .  S
C1495      C1496   1.403       .  A
C1495     Br1502   1.931       .  S
C1496      C1497   1.408       .  A
C1496     Br1501   1.930       .  S
C1497      C1498   1.409       .  A
C1498     Br1499   1.930       .  S
Br1500     C3005   1.929       .  S
C1503      C1504   1.409       .  A
C1503      C1508   1.402       .  A
C1503     Br1510   1.933       .  S
C1504      C1505   1.408       .  A
C1505      C1506   1.402       .  A
C1505     Br1512   1.932       .  S
C1506      C1507   1.409       .  A
C1506     Br1511   1.933       .  S
C1507      C1508   1.410       .  A
C1513      C1514   1.390       .  A
C1513      C1518   1.391       .  A
C1513      C1882   1.468       .  S
C1514      H1519   1.083       .  S
C1515      C1516   1.419       .  A
C1515      C1676   1.487   1_455  S
C1516      H1520   1.084   1_455  S
C1517      C1518   1.404       .  A
C1517      C1573   1.489       .  S
C1518      H1521   1.083       .  S
C1522      C2279   1.388       .  A
C1522      C2283   1.390       .  A
C1522      C1885   1.468       .  S
C1523      C2278   1.388       .  A
C1523      C1524   1.402   1_565  A
C1523      H2284   1.083       .  S
C1524      C1525   1.418       .  A
C1524      C1562   1.484       .  S
C1525      C1526   1.418       .  A
C1525      H1529   1.084       .  S
C1526      C1527   1.404       .  A
C1526      C1641   1.486       .  S
C1527      C2278   1.391   1_545  A
C1527      H1530   1.083       .  S
H1528      C2279   1.083       .  S
C1531      C1532   1.392       .  A
C1531      C1536   1.391       .  A
C1532      C1533   1.406       .  A
C1532      H1537   1.083       .  S
C1533      C1534   1.421       .  A
C1533      C1770   1.494       .  S
C1534      C1535   1.421       .  A
C1534      H1538   1.084       .  S
C1535      C1536   1.404       .  A
C1535      C1574   1.490       .  S
C1540      C1541   1.394       .  A
C1540      C1545   1.390       .  A
C1540      C1875   1.472       .  S
C1541      C2298   1.407       .  A
C1541      H1546   1.083       .  S
C1542      C2297   1.406       .  A
C1542      C1543   1.420       .  A
C1542      C1738   1.492       .  S
C1543      C2300   1.419       .  A
C1543      H1547   1.084       .  S
C1544      C2299   1.419       .  A
C1544      C1545   1.403       .  A
C1544      C1561   1.487       .  S
C1545      H1548   1.084       .  S
O1549     Ni1557   1.928       .  S
O1549      C1559   1.281       .  A
O1550     Ni1557   1.921       .  S
O1550      C1560   1.285       .  A
O1551     Ni1557   1.919       .  S
O1551      C1561   1.285       .  A
O1552     Ni1557   1.926       .  S
O1552      C1562   1.280       .  A
O1553     Ni1558   1.910       .  S
O1553      C1562   1.283       .  A
O1554     Ni2314   1.925       .  S
O1554      C2317   1.280       .  A
O1555     Ni1558   1.926       .  S
O1555      C1560   1.280       .  A
O1556     Ni1558   1.913       .  S
O1556      C1559   1.284       .  A
Ni1557    Ni1558   2.384       .  S
Ni1558     O2310   1.924       .  S
C1559      C1658   1.486       .  S
C1560      C1745   1.489       .  S
C1561      O2310   1.280       .  A
O1563     Ni1571   1.928   1_455  S
O1564      C1574   1.286       .  A
O1565      C1575   1.284       .  A
O1566     Ni1571   1.920   1_455  S
O1567     Ni1572   1.919       .  S
O1567      C1576   1.285       .  A
O1568     Ni1572   1.930       .  S
O1568      C1575   1.282       .  A
O1569     Ni1572   1.928       .  S
O1569      C1574   1.280       .  A
O1570     Ni1572   1.917       .  S
O1570      C1573   1.284       .  A
C1575      C1711   1.489       .  S
C1576      C1617   1.484       .  S
C1577      C1578   1.391       .  A
C1577      C1960   1.390       .  A
C1577      C1862   1.466       .  S
C1578      C1579   1.403       .  A
C1578      H2339   1.084   1_545  S
C1579      C1958   1.419       .  A
C1579      C2496   1.489   1_545  S
C1580      C1957   1.419       .  A
C1580      C1581   1.419   1_556  A
C1580      H1584   1.083       .  S
C1581      C1582   1.403       .  A
C1581      C1690   1.486       .  S
C1582      C1955   1.390       .  A
C1582      H1585   1.084       .  S
H1583      C2334   1.084       .  S
C1586      C1587   1.388   1_545  A
C1586      C1969   1.389       .  A
C1586      C1865   1.465       .  S
C1587      C1588   1.403   1_565  A
C1587      H2348   1.084       .  S
C1588      C1589   1.420       .  A
C1588      C2540   1.485   1_545  S
C1589      C1968   1.419       .  A
C1589      H1593   1.083       .  S
C1590      C1967   1.419   1_554  A
C1590      C1591   1.403       .  A
C1590      C1643   1.486       .  S
C1591      C1964   1.389       .  A
C1591      H1594   1.084       .  S
H1592      C2343   1.084       .  S
C1595      C1974   1.391       .  A
C1595      C1600   1.392       .  A
C1595      C1852   1.469       .  S
C1596      C1973   1.391       .  A
C1596      C1597   1.404       .  A
C1597      C1598   1.418       .  A
C1598      C1977   1.419   1_554  A
C1598      H1602   1.083   1_554  S
C1599      C1976   1.419       .  A
C1599      C1600   1.404       .  A
C1599      C1772   1.488       .  S
C1600      H1603   1.084       .  S
C1604      C1605   1.391       .  A
C1604      C1987   1.391       .  A
C1604      C1855   1.470       .  S
C1605      C1606   1.403       .  A
C1605      H1610   1.083       .  S
C1606      C1607   1.420       .  A
C1606      C1785   1.488       .  S
C1607      C1986   1.418       .  A
C1607      H1611   1.083       .  S
C1608      C1985   1.418   1_554  A
C1608      C1609   1.405       .  A
C1609      C1982   1.391       .  A
C1613      C1614   1.391       .  A
C1613      C1618   1.392       .  A
C1613      C1842   1.469       .  S
C1614      H1619   1.084       .  S
C1615      C1616   1.416       .  A
C1615      C1689   1.484   1_455  S
C1616      H1620   1.083   1_455  S
C1617      C1618   1.403       .  A
C1618      H1621   1.084       .  S
C1622      C1623   1.387       .  A
C1622      C1627   1.392       .  A
C1622      C1845   1.469       .  S
C1623      C1624   1.402       .  A
C1623      H1628   1.084       .  S
C1624      C1625   1.419       .  A
C1624      C1644   1.486       .  S
C1625      C1626   1.421       .  A
C1625      H1629   1.083       .  S
C1626      C1627   1.404       .  A
C1626      C1799   1.488       .  S
C1627      H1630   1.083       .  S
O1631     Ni1639   1.915       .  S
O1631      C1641   1.284       .  A
O1632     Ni1639   1.929       .  S
O1632      C1642   1.281       .  A
O1633     Ni1639   1.924       .  S
O1633      C1643   1.280       .  A
O1634     Ni1639   1.911       .  S
O1634      C1644   1.284       .  A
O1635     Ni1640   1.927       .  S
O1635      C1644   1.280       .  A
O1636     Ni1640   1.917       .  S
O1636      C1643   1.285       .  A
O1637     Ni1640   1.917       .  S
O1637      C1642   1.285       .  A
O1638     Ni1640   1.926       .  S
O1638      C1641   1.280       .  A
Ni1639    Ni1640   2.384       .  S
C1642      C1693   1.489       .  S
C1645      C1646   1.391       .  A
C1645      C1650   1.393       .  A
C1645      C1832   1.473       .  S
C1646      C1647   1.403       .  A
C1646      H1651   1.084       .  S
C1647      C1648   1.419       .  A
C1647      C1673   1.488       .  S
C1648      C1649   1.419       .  A
C1648      H1652   1.083       .  S
C1649      C1650   1.405       .  A
C1649      C1798   1.490       .  S
C1650      H1653   1.083       .  S
C1654      C2411   1.392       .  A
C1654      C1659   1.390       .  A
C1654      C1835   1.472       .  S
C1655      C2410   1.390   1_545  A
C1655      C1656   1.403       .  A
C1655      H1660   1.083       .  S
C1656      C1657   1.420       .  A
C1656      C1688   1.487       .  S
C1657      C1658   1.419       .  A
C1657      H1661   1.083       .  S
C1658      C2415   1.403       .  A
C1659      C2414   1.403       .  A
C1659      H1662   1.084       .  S
O1663     Ni1671   1.918       .  S
O1663      C1673   1.285       .  A
O1664     Ni1671   1.928       .  S
O1664      C1674   1.281       .  A
O1665     Ni1671   1.928       .  S
O1665      C1675   1.281       .  A
O1666     Ni1671   1.917       .  S
O1666      C1676   1.285       .  A
O1667     Ni1672   1.924       .  S
O1667      C1676   1.280       .  A
O1668     Ni1672   1.916       .  S
O1668      C1675   1.285       .  A
O1669     Ni1672   1.917       .  S
O1669      C1674   1.284       .  A
O1670     Ni1672   1.926       .  S
O1670      C1673   1.280       .  A
Ni1671    Ni1672   2.384       .  S
C1675      C1702   1.488       .  S
O1677     Ni1685   1.918       .  S
O1677      C1687   1.285       .  A
O1678     Ni1685   1.927       .  S
O1678      C1688   1.280       .  A
O1679     Ni1685   1.925       .  S
O1679      C1689   1.281       .  A
O1680     Ni1685   1.919       .  S
O1680      C1690   1.285       .  A
O1681     Ni1686   1.922       .  S
O1681      C1690   1.279       .  A
O1682     Ni1686   1.911       .  S
O1682      C1689   1.283       .  A
O1683     Ni1686   1.915       .  S
O1683      C1688   1.285       .  A
O1684     Ni1686   1.925       .  S
O1684      C1687   1.280       .  A
Ni1685    Ni1686   2.385       .  S
C1691      C1692   1.390       .  A
C1691      C2074   1.392   1_554  A
C1691      C1825   1.469       .  S
C1692      C1693   1.404       .  A
C1692      H1697   1.083       .  S
C1693      C1694   1.419       .  A
C1694      C2073   1.421   1_554  A
C1694      H1698   1.084   1_554  S
C1695      C2072   1.421       .  A
C1695      C1696   1.404       .  A
C1695      C1769   1.490       .  S
C1696      C2069   1.392       .  A
C1696      H1699   1.083       .  S
C1700      C1701   1.389       .  A
C1700      C2083   1.393   1_554  A
C1700      C1822   1.470       .  S
C1701      C1702   1.403       .  A
C1701      H1706   1.084       .  S
C1702      C1703   1.419       .  A
C1703      C2082   1.421   1_554  A
C1703      H1707   1.084   1_554  S
C1704      C2081   1.421       .  A
C1704      C1705   1.406       .  A
C1704      C1737   1.492       .  S
C1705      C2078   1.393       .  A
C1705      H1708   1.083       .  S
C1709      C1812   1.468       .  S
C1710      C1711   1.406       .  A
C1711      C1712   1.419       .  A
C1712      C1713   1.419       .  A
C1712      H1716   1.083       .  S
C1713      C1714   1.402       .  A
C1713      C1783   1.485       .  S
C1714      H1717   1.084       .  S
C1718      C1719   1.390       .  A
C1718      C1723   1.391       .  A
C1718      C1815   1.469       .  S
C1719      C1720   1.404       .  A
C1719      H1724   1.084       .  S
C1720      C1721   1.420       .  A
C1720      C1739   1.487       .  S
C1721      C1722   1.419       .  A
C1721      H1725   1.083       .  S
C1722      C1723   1.405       .  A
C1722      C1800   1.490       .  S
C1723      H1726   1.084       .  S
O1727     Ni1735   1.923       .  S
O1727      C1737   1.286       .  A
O1728     Ni1735   1.931       .  S
O1728      C1738   1.282       .  A
O1729     Ni1735   1.925       .  S
O1729      C1739   1.280       .  A
O1730     Ni1735   1.915       .  S
O1730      C1740   1.284       .  A
O1731     Ni1736   1.927       .  S
O1731      C1740   1.281       .  A
O1732     Ni1736   1.919       .  S
O1732      C1739   1.285       .  A
O1733     Ni1736   1.920       .  S
O1733      C1738   1.285       .  A
O1734     Ni1736   1.928       .  S
O1734      C1737   1.281       .  A
Ni1735    Ni1736   2.383       .  S
C1740      C2335   1.487       .  S
C1741      C1742   1.390       .  A
C1741      C1746   1.391       .  A
C1741      C1805   1.470       .  S
C1742      C2499   1.405       .  A
C1742      H1747   1.083       .  S
C1743      C2498   1.405       .  A
C1743      C1744   1.419       .  A
C1743      C1786   1.490       .  S
C1744      C2501   1.420       .  A
C1744      H1748   1.083       .  S
C1745      C2500   1.420       .  A
C1745      C1746   1.404       .  A
C1746      H1749   1.084       .  S
C1750      C1751   1.392       .  A
C1750      C1755   1.391       .  A
C1750      C1802   1.471       .  S
C1751      C1752   1.405       .  A
C1751      H1756   1.083       .  S
C1752      C1753   1.420       .  A
C1752      C1797   1.490       .  S
C1753      C1754   1.420       .  A
C1753      H1757   1.083       .  S
C1754      C1755   1.404       .  A
C1754      C1771   1.490       .  S
C1755      H1758   1.084       .  S
O1759     Ni1767   1.926       .  S
O1759      C1769   1.280       .  A
O1760     Ni1767   1.919       .  S
O1760      C1770   1.285       .  A
O1761     Ni1767   1.918       .  S
O1761      C1771   1.285       .  A
O1762     Ni1767   1.926       .  S
O1762      C1772   1.280       .  A
O1763     Ni1768   1.919       .  S
O1763      C1772   1.285       .  A
O1764     Ni1768   1.929       .  S
O1764      C1771   1.281       .  A
O1765     Ni1768   1.934       .  S
O1765      C1770   1.282       .  A
O1766     Ni1768   1.922       .  S
O1766      C1769   1.286       .  A
Ni1767    Ni1768   2.383       .  S
O1773     Ni1781   1.924       .  S
O1773      C1783   1.280       .  A
O1774     Ni1781   1.912       .  S
O1774      C1784   1.284       .  A
O1775     Ni1781   1.917       .  S
O1775      C1785   1.285       .  A
O1776     Ni1781   1.929       .  S
O1776      C1786   1.281       .  A
O1777     Ni1782   1.917       .  S
O1777      C1786   1.285       .  A
O1778     Ni1782   1.926       .  S
O1778      C1785   1.280       .  A
O1779     Ni1782   1.924       .  S
O1779      C1784   1.280       .  A
O1780     Ni1782   1.915       .  S
O1780      C1783   1.285       .  A
Ni1781    Ni1782   2.384       .  S
C1784      C2344   1.485       .  S
O1787     Ni1795   1.927       .  S
O1787      C1797   1.281       .  A
O1788     Ni1795   1.918       .  S
O1788      C1798   1.284       .  A
O1789     Ni1795   1.922       .  S
O1789      C1799   1.286       .  A
O1790     Ni1795   1.931       .  S
O1790      C1800   1.282       .  A
O1791     Ni1796   1.916       .  S
O1791      C1800   1.284       .  A
O1792     Ni1796   1.924       .  S
O1792      C1799   1.280       .  A
O1793     Ni1796   1.930       .  S
O1793      C1798   1.282       .  A
O1794     Ni1796   1.922       .  S
O1794      C1797   1.286       .  A
Ni1795    Ni1796   2.383       .  S
C1801      C1802   1.408       .  A
C1801      C1806   1.403       .  A
C1801     Br1808   1.930       .  S
C1802      C1803   1.408       .  A
C1803      C1804   1.404       .  A
C1803     Br1810   1.929       .  S
C1804      C1805   1.408       .  A
C1804     Br1809   1.931       .  S
C1805      C1806   1.408       .  A
C1806     Br1807   1.931       .  S
C1811      C1812   1.408       .  A
C1811      C1816   1.404       .  A
C1811     Br1818   1.930       .  S
C1812      C1813   1.407       .  A
C1813      C1814   1.402       .  A
C1813     Br1820   1.930       .  S
C1814      C1815   1.407       .  A
C1814     Br1819   1.931       .  S
C1815      C1816   1.408       .  A
C1816     Br1817   1.928       .  S
C1821      C2200   1.407       .  A
C1821      C1826   1.401       .  A
C1821     Br1828   1.929       .  S
C1822      C2199   1.407   1_554  A
C1822      C1823   1.409       .  A
C1823      C1824   1.405       .  A
C1823     Br1830   1.930       .  S
C1824      C1825   1.408       .  A
C1824     Br1829   1.931       .  S
C1825      C2204   1.407   1_554  A
C1826      C2203   1.407       .  A
C1826     Br1827   1.931       .  S
C1831      C1832   1.410       .  A
C1831      C1836   1.404       .  A
C1831     Br1838   1.933       .  S
C1832      C1833   1.411       .  A
C1833      C1834   1.403       .  A
C1833     Br1840   1.933       .  S
C1834      C1835   1.409       .  A
C1834     Br1839   1.933       .  S
C1835      C1836   1.410       .  A
C1836     Br2593   1.933       .  S
Br1837     C2592   1.934       .  S
C1841      C1842   1.409       .  A
C1841      C1846   1.403       .  A
C1841     Br1848   1.932       .  S
C1842      C1843   1.410       .  A
C1843      C1844   1.402       .  A
C1843     Br1850   1.934       .  S
C1844      C1845   1.410       .  A
C1844     Br1849   1.934       .  S
C1845      C1846   1.409       .  A
C1846     Br1847   1.932       .  S
C1851      C1856   1.400       .  A
C1851     Br1858   1.933       .  S
C1852      C2231   1.409       .  A
C1853      C2230   1.409       .  A
C1853      C1854   1.406       .  A
C1853     Br1860   1.931       .  S
C1854      C2233   1.410       .  A
C1854     Br1859   1.930       .  S
C1855      C2232   1.410       .  A
C1856     Br1857   1.933       .  S
C1861      C2996   1.408   1_554  A
C1861      C1866   1.402       .  A
C1861     Br1868   1.931       .  S
C1862      C2995   1.409       .  A
C1862      C1863   1.407       .  A
C1863      C1864   1.401       .  A
C1863     Br1870   1.931       .  S
C1864      C1865   1.408       .  A
C1864     Br1869   1.933       .  S
C1865      C3000   1.408       .  A
C1866      C2999   1.408       .  A
C1866     Br1867   1.931       .  S
C1871      C1872   1.409       .  A
C1871      C1876   1.406       .  A
C1872      C1873   1.409       .  A
C1873      C1874   1.403       .  A
C1873     Br1880   1.932       .  S
C1874      C1875   1.408       .  A
C1874     Br1879   1.932       .  S
C1875      C1876   1.410       .  A
C1876     Br1877   1.931       .  S
C1881      C1882   1.409       .  A
C1881      C1886   1.402       .  A
C1881     Br1888   1.932       .  S
C1882      C1883   1.408       .  A
C1883      C1884   1.403       .  A
C1883     Br1890   1.931       .  S
C1884      C1885   1.409       .  A
C1884     Br1889   1.932       .  S
C1885      C1886   1.409       .  A
C1886     Br2643   1.933       .  S
Br1887     C2642   1.933       .  S
C1891      C1892   1.390       .  A
C1891      C1896   1.391       .  A
C1891      C2260   1.468       .  S
C1892      H1897   1.083       .  S
C1893      C1894   1.419       .  A
C1893      C2054   1.487   1_455  S
C1894      H1898   1.084   1_455  S
C1895      C1896   1.404       .  A
C1895      C1951   1.489       .  S
C1896      H1899   1.083       .  S
C1900      C2657   1.388       .  A
C1900      C2661   1.390       .  A
C1900      C2263   1.468       .  S
C1901      C2656   1.388       .  A
C1901      C1902   1.402   1_565  A
C1901      H2662   1.083       .  S
C1902      C1903   1.418       .  A
C1902      C1940   1.484       .  S
C1903      C1904   1.418       .  A
C1903      H1907   1.084       .  S
C1904      C1905   1.404       .  A
C1904      C2019   1.486       .  S
C1905      C2656   1.391   1_545  A
C1905      H1908   1.083       .  S
H1906      C2657   1.083       .  S
C1909      C1910   1.392       .  A
C1909      C1914   1.391       .  A
C1910      C1911   1.406       .  A
C1910      H1915   1.083       .  S
C1911      C1912   1.421       .  A
C1911      C2148   1.494       .  S
C1912      C1913   1.422       .  A
C1912      H1916   1.084       .  S
C1913      C1914   1.404       .  A
C1913      C1952   1.490       .  S
C1918      C1919   1.394       .  A
C1918      C1923   1.390       .  A
C1918      C2253   1.472       .  S
C1919      C2676   1.407       .  A
C1919      H1924   1.083       .  S
C1920      C2675   1.406       .  A
C1920      C1921   1.420       .  A
C1920      C2116   1.492       .  S
C1921      C2678   1.419       .  A
C1921      H1925   1.084       .  S
C1922      C2677   1.419       .  A
C1922      C1923   1.403       .  A
C1922      C1939   1.487       .  S
C1923      H1926   1.084       .  S
O1927     Ni1935   1.928       .  S
O1927      C1937   1.281       .  A
O1928     Ni1935   1.921       .  S
O1928      C1938   1.285       .  A
O1929     Ni1935   1.919       .  S
O1929      C1939   1.285       .  A
O1930     Ni1935   1.926       .  S
O1930      C1940   1.280       .  A
O1931     Ni1936   1.910       .  S
O1931      C1940   1.283       .  A
O1932     Ni2692   1.925       .  S
O1932      C2695   1.280       .  A
O1933     Ni1936   1.926       .  S
O1933      C1938   1.280       .  A
O1934     Ni1936   1.913       .  S
O1934      C1937   1.284       .  A
Ni1935    Ni1936   2.384       .  S
Ni1936     O2688   1.924       .  S
C1937      C2036   1.486       .  S
C1938      C2123   1.489       .  S
C1939      O2688   1.280       .  A
O1941     Ni1949   1.928   1_455  S
O1942      C1952   1.286       .  A
O1943      C1953   1.284       .  A
O1944     Ni1949   1.920   1_455  S
O1945     Ni1950   1.919       .  S
O1945      C1954   1.285       .  A
O1946     Ni1950   1.930       .  S
O1946      C1953   1.282       .  A
O1947     Ni1950   1.928       .  S
O1947      C1952   1.280       .  A
O1948     Ni1950   1.917       .  S
O1948      C1951   1.284       .  A
C1953      C2089   1.489       .  S
C1954      C1995   1.484       .  S
C1955      C1956   1.391   1_554  A
C1955      C2240   1.466       .  S
C1956      C1957   1.403       .  A
C1956      H2717   1.084   1_545  S
C1957      C2874   1.489   1_545  S
C1958      C1959   1.419       .  A
C1958      H1962   1.083       .  S
C1959      C1960   1.403       .  A
C1959      C2068   1.486       .  S
C1960      H1963   1.084       .  S
H1961      C2712   1.084       .  S
C1964      C1965   1.388   1_544  A
C1964      C2243   1.465       .  S
C1965      C1966   1.403   1_565  A
C1965      H2726   1.084       .  S
C1966      C1967   1.420       .  A
C1966      C2918   1.485   1_545  S
C1967      H1971   1.083       .  S
C1968      C1969   1.403       .  A
C1968      C2021   1.486       .  S
C1969      H1972   1.084       .  S
H1970      C2721   1.084       .  S
C1973      C1978   1.392   1_554  A
C1973      C2230   1.469       .  S
C1974      C1975   1.404       .  A
C1975      C1976   1.418       .  A
C1976      H1980   1.083       .  S
C1977      C1978   1.404       .  A
C1977      C2150   1.488       .  S
C1978      H1981   1.084       .  S
C1982      C1983   1.391   1_554  A
C1982      C2233   1.470       .  S
C1983      C1984   1.403       .  A
C1983      H1988   1.083       .  S
C1984      C1985   1.420       .  A
C1984      C2163   1.488       .  S
C1985      H1989   1.083       .  S
C1986      C1987   1.405       .  A
C1991      C1992   1.391       .  A
C1991      C1996   1.392       .  A
C1991      C2220   1.469       .  S
C1992      H1997   1.084       .  S
C1993      C1994   1.416       .  A
C1993      C2067   1.484   1_455  S
C1994      H1998   1.083   1_455  S
C1995      C1996   1.403       .  A
C1996      H1999   1.084       .  S
C2000      C2001   1.387       .  A
C2000      C2005   1.392       .  A
C2000      C2223   1.469       .  S
C2001      C2002   1.402       .  A
C2001      H2006   1.084       .  S
C2002      C2003   1.419       .  A
C2002      C2022   1.486       .  S
C2003      C2004   1.421       .  A
C2003      H2007   1.083       .  S
C2004      C2005   1.404       .  A
C2004      C2177   1.488       .  S
C2005      H2008   1.083       .  S
O2009     Ni2017   1.915       .  S
O2009      C2019   1.284       .  A
O2010     Ni2017   1.929       .  S
O2010      C2020   1.281       .  A
O2011     Ni2017   1.924       .  S
O2011      C2021   1.280       .  A
O2012     Ni2017   1.911       .  S
O2012      C2022   1.284       .  A
O2013     Ni2018   1.927       .  S
O2013      C2022   1.280       .  A
O2014     Ni2018   1.917       .  S
O2014      C2021   1.285       .  A
O2015     Ni2018   1.917       .  S
O2015      C2020   1.285       .  A
O2016     Ni2018   1.926       .  S
O2016      C2019   1.280       .  A
Ni2017    Ni2018   2.384       .  S
C2020      C2071   1.489       .  S
C2023      C2024   1.391       .  A
C2023      C2028   1.393       .  A
C2023      C2210   1.473       .  S
C2024      C2025   1.403       .  A
C2024      H2029   1.084       .  S
C2025      C2026   1.419       .  A
C2025      C2051   1.488       .  S
C2026      C2027   1.419       .  A
C2026      H2030   1.083       .  S
C2027      C2028   1.405       .  A
C2027      C2176   1.490       .  S
C2028      H2031   1.083       .  S
C2032      C2789   1.392       .  A
C2032      C2037   1.390       .  A
C2032      C2213   1.472       .  S
C2033      C2788   1.390   1_545  A
C2033      C2034   1.403       .  A
C2033      H2038   1.083       .  S
C2034      C2035   1.420       .  A
C2034      C2066   1.487       .  S
C2035      C2036   1.419       .  A
C2035      H2039   1.083       .  S
C2036      C2793   1.403       .  A
C2037      C2792   1.403       .  A
C2037      H2040   1.084       .  S
O2041     Ni2049   1.918       .  S
O2041      C2051   1.285       .  A
O2042     Ni2049   1.928       .  S
O2042      C2052   1.281       .  A
O2043     Ni2049   1.928       .  S
O2043      C2053   1.281       .  A
O2044     Ni2049   1.917       .  S
O2044      C2054   1.285       .  A
O2045     Ni2050   1.924       .  S
O2045      C2054   1.280       .  A
O2046     Ni2050   1.916       .  S
O2046      C2053   1.285       .  A
O2047     Ni2050   1.917       .  S
O2047      C2052   1.284       .  A
O2048     Ni2050   1.926       .  S
O2048      C2051   1.280       .  A
Ni2049    Ni2050   2.384       .  S
C2053      C2080   1.488       .  S
O2055     Ni2063   1.918       .  S
O2055      C2065   1.285       .  A
O2056     Ni2063   1.927       .  S
O2056      C2066   1.280       .  A
O2057     Ni2063   1.925       .  S
O2057      C2067   1.281       .  A
O2058     Ni2063   1.919       .  S
O2058      C2068   1.285       .  A
O2059     Ni2064   1.922       .  S
O2059      C2068   1.279       .  A
O2060     Ni2064   1.911       .  S
O2060      C2067   1.283       .  A
O2061     Ni2064   1.915       .  S
O2061      C2066   1.285       .  A
O2062     Ni2064   1.925       .  S
O2062      C2065   1.280       .  A
Ni2063    Ni2064   2.385       .  S
C2069      C2070   1.390       .  A
C2069      C2203   1.469       .  S
C2070      C2071   1.404       .  A
C2070      H2075   1.083       .  S
C2071      C2072   1.419       .  A
C2072      H2076   1.084       .  S
C2073      C2074   1.404       .  A
C2073      C2147   1.490       .  S
C2074      H2077   1.083       .  S
C2078      C2079   1.389       .  A
C2078      C2200   1.470       .  S
C2079      C2080   1.403       .  A
C2079      H2084   1.084       .  S
C2080      C2081   1.419       .  A
C2081      H2085   1.084       .  S
C2082      C2083   1.406       .  A
C2082      C2115   1.492       .  S
C2083      H2086   1.083       .  S
C2087      C2190   1.468       .  S
C2088      C2089   1.406       .  A
C2089      C2090   1.419       .  A
C2090      C2091   1.419       .  A
C2090      H2094   1.083       .  S
C2091      C2092   1.402       .  A
C2091      C2161   1.485       .  S
C2092      H2095   1.084       .  S
C2096      C2097   1.390       .  A
C2096      C2101   1.391       .  A
C2096      C2193   1.469       .  S
C2097      C2098   1.404       .  A
C2097      H2102   1.084       .  S
C2098      C2099   1.420       .  A
C2098      C2117   1.487       .  S
C2099      C2100   1.419       .  A
C2099      H2103   1.083       .  S
C2100      C2101   1.405       .  A
C2100      C2178   1.490       .  S
C2101      H2104   1.084       .  S
O2105     Ni2113   1.923       .  S
O2105      C2115   1.286       .  A
O2106     Ni2113   1.931       .  S
O2106      C2116   1.282       .  A
O2107     Ni2113   1.925       .  S
O2107      C2117   1.280       .  A
O2108     Ni2113   1.915       .  S
O2108      C2118   1.284       .  A
O2109     Ni2114   1.927       .  S
O2109      C2118   1.281       .  A
O2110     Ni2114   1.919       .  S
O2110      C2117   1.285       .  A
O2111     Ni2114   1.920       .  S
O2111      C2116   1.285       .  A
O2112     Ni2114   1.928       .  S
O2112      C2115   1.281       .  A
Ni2113    Ni2114   2.383       .  S
C2118      C2713   1.487       .  S
C2119      C2120   1.390       .  A
C2119      C2124   1.391       .  A
C2119      C2183   1.470       .  S
C2120      C2877   1.405       .  A
C2120      H2125   1.083       .  S
C2121      C2876   1.405       .  A
C2121      C2122   1.419       .  A
C2121      C2164   1.490       .  S
C2122      C2879   1.420       .  A
C2122      H2126   1.083       .  S
C2123      C2878   1.420       .  A
C2123      C2124   1.404       .  A
C2124      H2127   1.084       .  S
C2128      C2129   1.392       .  A
C2128      C2133   1.391       .  A
C2128      C2180   1.471       .  S
C2129      C2130   1.405       .  A
C2129      H2134   1.083       .  S
C2130      C2131   1.420       .  A
C2130      C2175   1.490       .  S
C2131      C2132   1.420       .  A
C2131      H2135   1.083       .  S
C2132      C2133   1.404       .  A
C2132      C2149   1.490       .  S
C2133      H2136   1.084       .  S
O2137     Ni2145   1.926       .  S
O2137      C2147   1.280       .  A
O2138     Ni2145   1.919       .  S
O2138      C2148   1.285       .  A
O2139     Ni2145   1.918       .  S
O2139      C2149   1.285       .  A
O2140     Ni2145   1.926       .  S
O2140      C2150   1.280       .  A
O2141     Ni2146   1.919       .  S
O2141      C2150   1.285       .  A
O2142     Ni2146   1.929       .  S
O2142      C2149   1.281       .  A
O2143     Ni2146   1.934       .  S
O2143      C2148   1.282       .  A
O2144     Ni2146   1.922       .  S
O2144      C2147   1.286       .  A
Ni2145    Ni2146   2.383       .  S
O2151     Ni2159   1.924       .  S
O2151      C2161   1.280       .  A
O2152     Ni2159   1.912       .  S
O2152      C2162   1.284       .  A
O2153     Ni2159   1.917       .  S
O2153      C2163   1.285       .  A
O2154     Ni2159   1.929       .  S
O2154      C2164   1.281       .  A
O2155     Ni2160   1.917       .  S
O2155      C2164   1.285       .  A
O2156     Ni2160   1.926       .  S
O2156      C2163   1.280       .  A
O2157     Ni2160   1.924       .  S
O2157      C2162   1.280       .  A
O2158     Ni2160   1.915       .  S
O2158      C2161   1.285       .  A
Ni2159    Ni2160   2.384       .  S
C2162      C2722   1.485       .  S
O2165     Ni2173   1.927       .  S
O2165      C2175   1.281       .  A
O2166     Ni2173   1.918       .  S
O2166      C2176   1.284       .  A
O2167     Ni2173   1.922       .  S
O2167      C2177   1.286       .  A
O2168     Ni2173   1.931       .  S
O2168      C2178   1.282       .  A
O2169     Ni2174   1.916       .  S
O2169      C2178   1.284       .  A
O2170     Ni2174   1.924       .  S
O2170      C2177   1.280       .  A
O2171     Ni2174   1.930       .  S
O2171      C2176   1.282       .  A
O2172     Ni2174   1.922       .  S
O2172      C2175   1.286       .  A
Ni2173    Ni2174   2.383       .  S
C2179      C2180   1.408       .  A
C2179      C2184   1.403       .  A
C2179     Br2186   1.930       .  S
C2180      C2181   1.408       .  A
C2181      C2182   1.404       .  A
C2181     Br2188   1.929       .  S
C2182      C2183   1.408       .  A
C2182     Br2187   1.931       .  S
C2183      C2184   1.408       .  A
C2184     Br2185   1.931       .  S
C2189      C2190   1.408       .  A
C2189      C2194   1.404       .  A
C2189     Br2196   1.930       .  S
C2190      C2191   1.407       .  A
C2191      C2192   1.402       .  A
C2191     Br2198   1.930       .  S
C2192      C2193   1.407       .  A
C2192     Br2197   1.931       .  S
C2193      C2194   1.408       .  A
C2194     Br2195   1.928       .  S
C2199      C2204   1.401       .  A
C2199     Br2206   1.929       .  S
C2200      C2201   1.409       .  A
C2201      C2202   1.405       .  A
C2201     Br2208   1.930       .  S
C2202      C2203   1.408       .  A
C2202     Br2207   1.931       .  S
C2204     Br2205   1.931       .  S
C2209      C2210   1.410       .  A
C2209      C2214   1.404       .  A
C2209     Br2216   1.933       .  S
C2210      C2211   1.411       .  A
C2211      C2212   1.403       .  A
C2211     Br2218   1.933       .  S
C2212      C2213   1.409       .  A
C2212     Br2217   1.933       .  S
C2213      C2214   1.410       .  A
C2214     Br2971   1.933       .  S
Br2215     C2970   1.934       .  S
C2219      C2220   1.409       .  A
C2219      C2224   1.403       .  A
C2219     Br2226   1.932       .  S
C2220      C2221   1.410       .  A
C2221      C2222   1.402       .  A
C2221     Br2228   1.934       .  S
C2222      C2223   1.410       .  A
C2222     Br2227   1.934       .  S
C2223      C2224   1.409       .  A
C2224     Br2225   1.932       .  S
C2229      C2234   1.400       .  A
C2229     Br2236   1.933       .  S
C2231      C2232   1.406       .  A
C2231     Br2238   1.931       .  S
C2232     Br2237   1.930       .  S
C2234     Br2235   1.933       .  S
C2239      C2618   1.408       .  A
C2239      C2244   1.402       .  A
C2239     Br2246   1.931       .  S
C2240      C2617   1.409       .  A
C2240      C2241   1.407   1_554  A
C2241      C2242   1.401       .  A
C2241     Br2248   1.931       .  S
C2242      C2243   1.408   1_556  A
C2242     Br2247   1.933       .  S
C2243      C2622   1.408       .  A
C2244      C2621   1.408       .  A
C2244     Br2245   1.931       .  S
C2249      C2250   1.409       .  A
C2249      C2254   1.406       .  A
C2250      C2251   1.409       .  A
C2251      C2252   1.403       .  A
C2251     Br2258   1.932       .  S
C2252      C2253   1.408       .  A
C2252     Br2257   1.932       .  S
C2253      C2254   1.410       .  A
C2254     Br2255   1.931       .  S
C2259      C2260   1.409       .  A
C2259      C2264   1.402       .  A
C2259     Br2266   1.932       .  S
C2260      C2261   1.408       .  A
C2261      C2262   1.403       .  A
C2261     Br2268   1.931       .  S
C2262      C2263   1.409       .  A
C2262     Br2267   1.932       .  S
C2263      C2264   1.409       .  A
C2264     Br3021   1.933       .  S
Br2265     C3020   1.933       .  S
C2269      C2270   1.390       .  A
C2269      C2274   1.390       .  A
C2269      C2638   1.468       .  S
C2270      H2275   1.083       .  S
C2271      C2272   1.419       .  A
C2271      C2432   1.486   1_455  S
C2272      H2276   1.084   1_455  S
C2273      C2274   1.403       .  A
C2273      C2329   1.487       .  S
C2274      H2277   1.083       .  S
C2278      C2641   1.469       .  S
C2279      C2280   1.403       .  A
C2280      C2281   1.419       .  A
C2280      C2318   1.486       .  S
C2281      C2282   1.419       .  A
C2281      H2285   1.084       .  S
C2282      C2283   1.404       .  A
C2282      C2397   1.487       .  S
C2283      H2286   1.083       .  S
C2287      C2288   1.391       .  A
C2287      C2292   1.390       .  A
C2288      C2289   1.405       .  A
C2288      H2293   1.083       .  S
C2289      C2290   1.422       .  A
C2289      C2526   1.493       .  S
C2290      C2291   1.422       .  A
C2290      H2294   1.084       .  S
C2291      C2292   1.404       .  A
C2291      C2330   1.490       .  S
C2296      C2297   1.393       .  A
C2296      C2301   1.390       .  A
C2296      C2631   1.470       .  S
C2297      H2302   1.083       .  S
C2298      C2299   1.419       .  A
C2298      C2494   1.492   1_545  S
C2299      H2303   1.084   1_545  S
C2300      C2301   1.403       .  A
C2300      C2317   1.488       .  S
C2301      H2304   1.083       .  S
O2305     Ni2313   1.928       .  S
O2305      C2315   1.281       .  A
O2306     Ni2313   1.921       .  S
O2306      C2316   1.285       .  A
O2307     Ni2313   1.919       .  S
O2307      C2317   1.285       .  A
O2308     Ni2313   1.927       .  S
O2308      C2318   1.280       .  A
O2309     Ni2314   1.912       .  S
O2309      C2318   1.284       .  A
O2311     Ni2314   1.926       .  S
O2311      C2316   1.280       .  A
O2312     Ni2314   1.913       .  S
O2312      C2315   1.284       .  A
Ni2313    Ni2314   2.384       .  S
C2315      C2414   1.487       .  S
C2316      C2501   1.489       .  S
O2319     Ni2327   1.928   1_455  S
O2320      C2330   1.286       .  A
O2321      C2331   1.284       .  A
O2322     Ni2327   1.921   1_455  S
O2323     Ni2328   1.918       .  S
O2323      C2332   1.285       .  A
O2324     Ni2328   1.930       .  S
O2324      C2331   1.282       .  A
O2325     Ni2328   1.927       .  S
O2325      C2330   1.280       .  A
O2326     Ni2328   1.915       .  S
O2326      C2329   1.284       .  A
C2331      C2467   1.490       .  S
C2332      C2373   1.485       .  S
C2333      C2334   1.390       .  A
C2333      C2716   1.389       .  A
C2333      C2618   1.465       .  S
C2334      C2335   1.404       .  A
C2335      C2714   1.418       .  A
C2336      C2713   1.418       .  A
C2336      C2337   1.418   1_556  A
C2336      H2340   1.083       .  S
C2337      C2338   1.403       .  A
C2337      C2446   1.485       .  S
C2338      C2711   1.389   1_554  A
C2338      H2341   1.084       .  S
C2342      C2343   1.388       .  A
C2342      C2725   1.388       .  A
C2342      C2621   1.465       .  S
C2343      C2344   1.403       .  A
C2344      C2345   1.419       .  A
C2345      C2724   1.419       .  A
C2345      H2349   1.083       .  S
C2346      C2723   1.419   1_554  A
C2346      C2347   1.403       .  A
C2346      C2399   1.486       .  S
C2347      C2720   1.388       .  A
C2347      H2350   1.084       .  S
C2351      C2730   1.391       .  A
C2351      C2356   1.392       .  A
C2351      C2608   1.469       .  S
C2352      C2729   1.391       .  A
C2352      C2353   1.403       .  A
C2353      C2354   1.418       .  A
C2354      C2733   1.419   1_554  A
C2354      H2358   1.083   1_554  S
C2355      C2732   1.419       .  A
C2355      C2356   1.404       .  A
C2355      C2528   1.489       .  S
C2356      H2359   1.084       .  S
C2360      C2361   1.391       .  A
C2360      C2743   1.390       .  A
C2360      C2611   1.469       .  S
C2361      C2362   1.403       .  A
C2361      H2366   1.083       .  S
C2362      C2363   1.419       .  A
C2362      C2541   1.487       .  S
C2363      C2742   1.418       .  A
C2363      H2367   1.083       .  S
C2364      C2741   1.418       .  A
C2364      C2365   1.404       .  A
C2365      C2738   1.390       .  A
C2369      C2370   1.390       .  A
C2369      C2374   1.391       .  A
C2369      C2598   1.467       .  S
C2370      H2375   1.084       .  S
C2371      C2372   1.417   1_455  A
C2371      C2445   1.485   1_455  S
C2372      H2376   1.083       .  S
C2373      C2374   1.403       .  A
C2374      H2377   1.084       .  S
C2378      C2379   1.387       .  A
C2378      C2383   1.391       .  A
C2378      C2601   1.467       .  S
C2379      C2380   1.402       .  A
C2379      H2384   1.084       .  S
C2380      C2381   1.420       .  A
C2380      C2400   1.486       .  S
C2381      C2382   1.421       .  A
C2381      H2385   1.083       .  S
C2382      C2383   1.404       .  A
C2382      C2555   1.489       .  S
C2383      H2386   1.084       .  S
O2387     Ni2395   1.916       .  S
O2387      C2397   1.284       .  A
O2388     Ni2395   1.928       .  S
O2388      C2398   1.281       .  A
O2389     Ni2395   1.925       .  S
O2389      C2399   1.280       .  A
O2390     Ni2395   1.912       .  S
O2390      C2400   1.284       .  A
O2391     Ni2396   1.926       .  S
O2391      C2400   1.280       .  A
O2392     Ni2396   1.916       .  S
O2392      C2399   1.285       .  A
O2393     Ni2396   1.916       .  S
O2393      C2398   1.285       .  A
O2394     Ni2396   1.927       .  S
O2394      C2397   1.281       .  A
Ni2395    Ni2396   2.384       .  S
C2398      C2449   1.488       .  S
C2401      C2402   1.391       .  A
C2401      C2406   1.393       .  A
C2401      C2588   1.471       .  S
C2402      C2403   1.402       .  A
C2402      H2407   1.084       .  S
C2403      C2404   1.418       .  A
C2403      C2429   1.487       .  S
C2404      C2405   1.418       .  A
C2404      H2408   1.083       .  S
C2405      C2406   1.405       .  A
C2405      C2554   1.488       .  S
C2406      H2409   1.083       .  S
C2410      C2415   1.389   1_565  A
C2410      C2591   1.470       .  S
C2411      C2412   1.405       .  A
C2411      H2416   1.083       .  S
C2412      C2413   1.419       .  A
C2412      C2444   1.488       .  S
C2413      C2414   1.418       .  A
C2413      H2417   1.083       .  S
C2415      H2418   1.084   1_545  S
O2419     Ni2427   1.916       .  S
O2419      C2429   1.285       .  A
O2420     Ni2427   1.926       .  S
O2420      C2430   1.280       .  A
O2421     Ni2427   1.929       .  S
O2421      C2431   1.281       .  A
O2422     Ni2427   1.918       .  S
O2422      C2432   1.285       .  A
O2423     Ni2428   1.922       .  S
O2423      C2432   1.280       .  A
O2424     Ni2428   1.914       .  S
O2424      C2431   1.284       .  A
O2425     Ni2428   1.915       .  S
O2425      C2430   1.284       .  A
O2426     Ni2428   1.925       .  S
O2426      C2429   1.280       .  A
Ni2427    Ni2428   2.385       .  S
C2431      C2458   1.488       .  S
O2433     Ni2441   1.918       .  S
O2433      C2443   1.285       .  A
O2434     Ni2441   1.928       .  S
O2434      C2444   1.281       .  A
O2435     Ni2441   1.924       .  S
O2435      C2445   1.280       .  A
O2436     Ni2441   1.917       .  S
O2436      C2446   1.285       .  A
O2437     Ni2442   1.922       .  S
O2437      C2446   1.280       .  A
O2438     Ni2442   1.912       .  S
O2438      C2445   1.284       .  A
O2439     Ni2442   1.915       .  S
O2439      C2444   1.284       .  A
O2440     Ni2442   1.925       .  S
O2440      C2443   1.280       .  A
Ni2441    Ni2442   2.385       .  S
C2447      C2448   1.389       .  A
C2447      C2830   1.391   1_554  A
C2447      C2581   1.468       .  S
C2448      C2449   1.404       .  A
C2448      H2453   1.083       .  S
C2449      C2450   1.419       .  A
C2450      C2829   1.421   1_554  A
C2450      H2454   1.084   1_554  S
C2451      C2828   1.421       .  A
C2451      C2452   1.404       .  A
C2451      C2525   1.490       .  S
C2452      C2825   1.391       .  A
C2452      H2455   1.083       .  S
C2456      C2457   1.389       .  A
C2456      C2839   1.393   1_554  A
C2456      C2578   1.469       .  S
C2457      C2458   1.403       .  A
C2457      H2462   1.084       .  S
C2458      C2459   1.419   1_554  A
C2459      C2838   1.421       .  A
C2459      H2463   1.084       .  S
C2460      C2837   1.421       .  A
C2460      C2461   1.406       .  A
C2460      C2493   1.491       .  S
C2461      C2834   1.393       .  A
C2461      H2464   1.083       .  S
C2465      C2568   1.470       .  S
C2466      C2467   1.406       .  A
C2467      C2468   1.419       .  A
C2468      C2469   1.419       .  A
C2468      H2472   1.083       .  S
C2469      C2470   1.403       .  A
C2469      C2539   1.486       .  S
C2470      H2473   1.084       .  S
C2474      C2475   1.390       .  A
C2474      C2479   1.391       .  A
C2474      C2571   1.470       .  S
C2475      C2476   1.404       .  A
C2475      H2480   1.084       .  S
C2476      C2477   1.420       .  A
C2476      C2495   1.489       .  S
C2477      C2478   1.420       .  A
C2477      H2481   1.083       .  S
C2478      C2479   1.405       .  A
C2478      C2556   1.491       .  S
C2479      H2482   1.084       .  S
O2483     Ni2491   1.923       .  S
O2483      C2493   1.286       .  A
O2484     Ni2491   1.931       .  S
O2484      C2494   1.282       .  A
O2485     Ni2491   1.926       .  S
O2485      C2495   1.280       .  A
O2486     Ni2491   1.918       .  S
O2486      C2496   1.285       .  A
O2487     Ni2492   1.927       .  S
O2487      C2496   1.281       .  A
O2488     Ni2492   1.918       .  S
O2488      C2495   1.285       .  A
O2489     Ni2492   1.919       .  S
O2489      C2494   1.284       .  A
O2490     Ni2492   1.927       .  S
O2490      C2493   1.281       .  A
Ni2491    Ni2492   2.383       .  S
C2497      C2498   1.391       .  A
C2497      C2502   1.392       .  A
C2497      C2561   1.472       .  S
C2498      H2503   1.083       .  S
C2499      C2500   1.420       .  A
C2499      C2542   1.489   1_545  S
C2500      H2504   1.083   1_545  S
C2501      C2502   1.404       .  A
C2502      H2505   1.084       .  S
C2506      C2507   1.393       .  A
C2506      C2511   1.392       .  A
C2506      C2558   1.473       .  S
C2507      C2508   1.405       .  A
C2507      H2512   1.083       .  S
C2508      C2509   1.420       .  A
C2508      C2553   1.490       .  S
C2509      C2510   1.419       .  A
C2509      H2513   1.083       .  S
C2510      C2511   1.404       .  A
C2510      C2527   1.490       .  S
C2511      H2514   1.084       .  S
O2515     Ni2523   1.926       .  S
O2515      C2525   1.280       .  A
O2516     Ni2523   1.919       .  S
O2516      C2526   1.285       .  A
O2517     Ni2523   1.919       .  S
O2517      C2527   1.285       .  A
O2518     Ni2523   1.927       .  S
O2518      C2528   1.281       .  A
O2519     Ni2524   1.919       .  S
O2519      C2528   1.285       .  A
O2520     Ni2524   1.929       .  S
O2520      C2527   1.281       .  A
O2521     Ni2524   1.933       .  S
O2521      C2526   1.282       .  A
O2522     Ni2524   1.922       .  S
O2522      C2525   1.286       .  A
Ni2523    Ni2524   2.383       .  S
O2529     Ni2537   1.925       .  S
O2529      C2539   1.280       .  A
O2530     Ni2537   1.913       .  S
O2530      C2540   1.284       .  A
O2531     Ni2537   1.917       .  S
O2531      C2541   1.285       .  A
O2532     Ni2537   1.929       .  S
O2532      C2542   1.281       .  A
O2533     Ni2538   1.916       .  S
O2533      C2542   1.284       .  A
O2534     Ni2538   1.925       .  S
O2534      C2541   1.280       .  A
O2535     Ni2538   1.924       .  S
O2535      C2540   1.280       .  A
O2536     Ni2538   1.915       .  S
O2536      C2539   1.285       .  A
Ni2537    Ni2538   2.384       .  S
O2543     Ni2551   1.928       .  S
O2543      C2553   1.281       .  A
O2544     Ni2551   1.918       .  S
O2544      C2554   1.284       .  A
O2545     Ni2551   1.921       .  S
O2545      C2555   1.286       .  A
O2546     Ni2551   1.931       .  S
O2546      C2556   1.282       .  A
O2547     Ni2552   1.917       .  S
O2547      C2556   1.284       .  A
O2548     Ni2552   1.925       .  S
O2548      C2555   1.280       .  A
O2549     Ni2552   1.927       .  S
O2549      C2554   1.281       .  A
O2550     Ni2552   1.920       .  S
O2550      C2553   1.285       .  A
Ni2551    Ni2552   2.383       .  S
C2557      C2558   1.409       .  A
C2557      C2562   1.404       .  A
C2557     Br2564   1.930       .  S
C2558      C2559   1.409       .  A
C2559      C2560   1.405       .  A
C2559     Br2566   1.931       .  S
C2560      C2561   1.409       .  A
C2560     Br2565   1.932       .  S
C2561      C2562   1.408       .  A
C2562     Br2563   1.931       .  S
C2567      C2568   1.409       .  A
C2567      C2572   1.404       .  A
C2567     Br2574   1.931       .  S
C2568      C2569   1.408       .  A
C2569      C2570   1.403       .  A
C2569     Br2576   1.931       .  S
C2570      C2571   1.408       .  A
C2570     Br2575   1.931       .  S
C2571      C2572   1.408       .  A
C2572     Br2573   1.928       .  S
C2577      C2956   1.407       .  A
C2577      C2582   1.402       .  A
C2577     Br2584   1.928       .  S
C2578      C2955   1.407   1_554  A
C2578      C2579   1.409       .  A
C2579      C2580   1.405       .  A
C2579     Br2586   1.931       .  S
C2580      C2581   1.408       .  A
C2580     Br2585   1.930       .  S
C2581      C2960   1.407   1_554  A
C2582      C2959   1.407       .  A
C2582     Br2583   1.930       .  S
C2587      C2588   1.410       .  A
C2587      C2592   1.403       .  A
C2587     Br2594   1.933       .  S
C2588      C2589   1.410       .  A
C2589      C2590   1.402       .  A
C2589     Br2596   1.933       .  S
C2590      C2591   1.409       .  A
C2590     Br2595   1.934       .  S
C2591      C2592   1.410       .  A
C2597      C2598   1.409       .  A
C2597      C2602   1.402       .  A
C2597     Br2604   1.931       .  S
C2598      C2599   1.409       .  A
C2599      C2600   1.402       .  A
C2599     Br2606   1.933       .  S
C2600      C2601   1.409       .  A
C2600     Br2605   1.933       .  S
C2601      C2602   1.408       .  A
C2602     Br2603   1.932       .  S
C2607      C2612   1.400       .  A
C2607     Br2614   1.933       .  S
C2608      C2987   1.409       .  A
C2609      C2986   1.409       .  A
C2609      C2610   1.406       .  A
C2609     Br2616   1.931       .  S
C2610      C2989   1.409       .  A
C2610     Br2615   1.931       .  S
C2611      C2988   1.409       .  A
C2612     Br2613   1.933       .  S
C2617      C2622   1.403       .  A
C2617     Br2624   1.931       .  S
C2618      C2619   1.407       .  A
C2619      C2620   1.401       .  A
C2619     Br2626   1.930       .  S
C2620      C2621   1.408       .  A
C2620     Br2625   1.932       .  S
C2622     Br2623   1.931       .  S
C2627      C2628   1.408       .  A
C2627      C2632   1.405       .  A
C2628      C2629   1.408       .  A
C2629      C2630   1.403       .  A
C2629     Br2636   1.931       .  S
C2630      C2631   1.408       .  A
C2630     Br2635   1.930       .  S
C2631      C2632   1.409       .  A
C2632     Br2633   1.930       .  S
C2637      C2638   1.409       .  A
C2637      C2642   1.402       .  A
C2637     Br2644   1.933       .  S
C2638      C2639   1.408       .  A
C2639      C2640   1.402       .  A
C2639     Br2646   1.932       .  S
C2640      C2641   1.409       .  A
C2640     Br2645   1.933       .  S
C2641      C2642   1.410       .  A
C2647      C2648   1.390       .  A
C2647      C2652   1.390       .  A
C2647      C3016   1.468       .  S
C2648      H2653   1.083       .  S
C2649      C2650   1.419       .  A
C2649      C2810   1.486   1_455  S
C2650      H2654   1.084   1_455  S
C2651      C2652   1.403       .  A
C2651      C2707   1.487       .  S
C2652      H2655   1.083       .  S
C2656      C3019   1.469       .  S
C2657      C2658   1.403       .  A
C2658      C2659   1.419       .  A
C2658      C2696   1.486       .  S
C2659      C2660   1.419       .  A
C2659      H2663   1.084       .  S
C2660      C2661   1.404       .  A
C2660      C2775   1.487       .  S
C2661      H2664   1.083       .  S
C2665      C2666   1.391       .  A
C2665      C2670   1.390       .  A
C2666      C2667   1.405       .  A
C2666      H2671   1.083       .  S
C2667      C2668   1.422       .  A
C2667      C2904   1.493       .  S
C2668      C2669   1.422       .  A
C2668      H2672   1.084       .  S
C2669      C2670   1.404       .  A
C2669      C2708   1.490       .  S
C2674      C2675   1.393       .  A
C2674      C2679   1.390       .  A
C2674      C3009   1.470       .  S
C2675      H2680   1.083       .  S
C2676      C2677   1.419       .  A
C2676      C2872   1.492   1_545  S
C2677      H2681   1.084   1_545  S
C2678      C2679   1.403       .  A
C2678      C2695   1.488       .  S
C2679      H2682   1.083       .  S
O2683     Ni2691   1.928       .  S
O2683      C2693   1.281       .  A
O2684     Ni2691   1.921       .  S
O2684      C2694   1.285       .  A
O2685     Ni2691   1.919       .  S
O2685      C2695   1.285       .  A
O2686     Ni2691   1.927       .  S
O2686      C2696   1.280       .  A
O2687     Ni2692   1.912       .  S
O2687      C2696   1.284       .  A
O2689     Ni2692   1.926       .  S
O2689      C2694   1.280       .  A
O2690     Ni2692   1.913       .  S
O2690      C2693   1.284       .  A
Ni2691    Ni2692   2.384       .  S
C2693      C2792   1.487       .  S
C2694      C2879   1.489       .  S
O2697     Ni2705   1.928   1_455  S
O2698      C2708   1.286       .  A
O2699      C2709   1.284       .  A
O2700     Ni2705   1.921   1_455  S
O2701     Ni2706   1.918       .  S
O2701      C2710   1.285       .  A
O2702     Ni2706   1.930       .  S
O2702      C2709   1.282       .  A
O2703     Ni2706   1.927       .  S
O2703      C2708   1.280       .  A
O2704     Ni2706   1.915       .  S
O2704      C2707   1.284       .  A
C2709      C2845   1.490       .  S
C2710      C2751   1.485       .  S
C2711      C2712   1.390       .  A
C2711      C2996   1.465       .  S
C2712      C2713   1.404       .  A
C2714      C2715   1.418       .  A
C2714      H2718   1.083       .  S
C2715      C2716   1.403       .  A
C2715      C2824   1.485       .  S
C2716      H2719   1.084       .  S
C2720      C2721   1.388   1_554  A
C2720      C2999   1.465       .  S
C2721      C2722   1.403       .  A
C2722      C2723   1.419       .  A
C2723      H2727   1.083       .  S
C2724      C2725   1.403       .  A
C2724      C2777   1.486       .  S
C2725      H2728   1.084       .  S
C2729      C2734   1.392   1_554  A
C2729      C2986   1.469       .  S
C2730      C2731   1.403       .  A
C2731      C2732   1.418       .  A
C2732      H2736   1.083       .  S
C2733      C2734   1.404       .  A
C2733      C2906   1.489       .  S
C2734      H2737   1.084       .  S
C2738      C2739   1.391   1_554  A
C2738      C2989   1.469       .  S
C2739      C2740   1.403       .  A
C2739      H2744   1.083       .  S
C2740      C2741   1.419   1_556  A
C2740      C2919   1.487       .  S
C2741      H2745   1.083   1_554  S
C2742      C2743   1.404       .  A
C2747      C2748   1.390       .  A
C2747      C2752   1.391       .  A
C2747      C2976   1.467       .  S
C2748      H2753   1.084       .  S
C2749      C2750   1.417   1_455  A
C2749      C2823   1.485   1_455  S
C2750      H2754   1.083       .  S
C2751      C2752   1.403       .  A
C2752      H2755   1.084       .  S
C2756      C2757   1.387       .  A
C2756      C2761   1.391       .  A
C2756      C2979   1.467       .  S
C2757      C2758   1.402       .  A
C2757      H2762   1.084       .  S
C2758      C2759   1.420       .  A
C2758      C2778   1.486       .  S
C2759      C2760   1.421       .  A
C2759      H2763   1.083       .  S
C2760      C2761   1.404       .  A
C2760      C2933   1.489       .  S
C2761      H2764   1.084       .  S
O2765     Ni2773   1.916       .  S
O2765      C2775   1.284       .  A
O2766     Ni2773   1.928       .  S
O2766      C2776   1.281       .  A
O2767     Ni2773   1.925       .  S
O2767      C2777   1.280       .  A
O2768     Ni2773   1.912       .  S
O2768      C2778   1.284       .  A
O2769     Ni2774   1.926       .  S
O2769      C2778   1.280       .  A
O2770     Ni2774   1.916       .  S
O2770      C2777   1.285       .  A
O2771     Ni2774   1.916       .  S
O2771      C2776   1.285       .  A
O2772     Ni2774   1.927       .  S
O2772      C2775   1.281       .  A
Ni2773    Ni2774   2.384       .  S
C2776      C2827   1.488       .  S
C2779      C2780   1.391       .  A
C2779      C2784   1.393       .  A
C2779      C2966   1.471       .  S
C2780      C2781   1.402       .  A
C2780      H2785   1.084       .  S
C2781      C2782   1.418       .  A
C2781      C2807   1.487       .  S
C2782      C2783   1.418       .  A
C2782      H2786   1.083       .  S
C2783      C2784   1.405       .  A
C2783      C2932   1.488       .  S
C2784      H2787   1.083       .  S
C2788      C2793   1.389   1_565  A
C2788      C2969   1.470       .  S
C2789      C2790   1.405       .  A
C2789      H2794   1.083       .  S
C2790      C2791   1.419       .  A
C2790      C2822   1.488       .  S
C2791      C2792   1.418       .  A
C2791      H2795   1.083       .  S
C2793      H2796   1.084   1_545  S
O2797     Ni2805   1.916       .  S
O2797      C2807   1.285       .  A
O2798     Ni2805   1.926       .  S
O2798      C2808   1.280       .  A
O2799     Ni2805   1.929       .  S
O2799      C2809   1.281       .  A
O2800     Ni2805   1.918       .  S
O2800      C2810   1.285       .  A
O2801     Ni2806   1.922       .  S
O2801      C2810   1.280       .  A
O2802     Ni2806   1.914       .  S
O2802      C2809   1.284       .  A
O2803     Ni2806   1.915       .  S
O2803      C2808   1.284       .  A
O2804     Ni2806   1.925       .  S
O2804      C2807   1.280       .  A
Ni2805    Ni2806   2.385       .  S
C2809      C2836   1.488       .  S
O2811     Ni2819   1.918       .  S
O2811      C2821   1.285       .  A
O2812     Ni2819   1.928       .  S
O2812      C2822   1.281       .  A
O2813     Ni2819   1.924       .  S
O2813      C2823   1.280       .  A
O2814     Ni2819   1.917       .  S
O2814      C2824   1.285       .  A
O2815     Ni2820   1.922       .  S
O2815      C2824   1.280       .  A
O2816     Ni2820   1.912       .  S
O2816      C2823   1.284       .  A
O2817     Ni2820   1.915       .  S
O2817      C2822   1.284       .  A
O2818     Ni2820   1.925       .  S
O2818      C2821   1.280       .  A
Ni2819    Ni2820   2.385       .  S
C2825      C2826   1.389       .  A
C2825      C2959   1.468       .  S
C2826      C2827   1.404       .  A
C2826      H2831   1.083       .  S
C2827      C2828   1.419       .  A
C2828      H2832   1.084       .  S
C2829      C2830   1.404       .  A
C2829      C2903   1.490       .  S
C2830      H2833   1.083       .  S
C2834      C2835   1.389       .  A
C2834      C2956   1.469       .  S
C2835      C2836   1.403       .  A
C2835      H2840   1.084       .  S
C2836      C2837   1.419       .  A
C2837      H2841   1.084       .  S
C2838      C2839   1.406       .  A
C2838      C2871   1.491       .  S
C2839      H2842   1.083       .  S
C2843      C2946   1.470       .  S
C2844      C2845   1.406       .  A
C2845      C2846   1.419       .  A
C2846      C2847   1.419       .  A
C2846      H2850   1.083       .  S
C2847      C2848   1.403       .  A
C2847      C2917   1.486       .  S
C2848      H2851   1.084       .  S
C2852      C2853   1.390       .  A
C2852      C2857   1.391       .  A
C2852      C2949   1.470       .  S
C2853      C2854   1.404       .  A
C2853      H2858   1.084       .  S
C2854      C2855   1.420       .  A
C2854      C2873   1.489       .  S
C2855      C2856   1.420       .  A
C2855      H2859   1.083       .  S
C2856      C2857   1.405       .  A
C2856      C2934   1.491       .  S
C2857      H2860   1.084       .  S
O2861     Ni2869   1.923       .  S
O2861      C2871   1.286       .  A
O2862     Ni2869   1.931       .  S
O2862      C2872   1.282       .  A
O2863     Ni2869   1.926       .  S
O2863      C2873   1.280       .  A
O2864     Ni2869   1.918       .  S
O2864      C2874   1.285       .  A
O2865     Ni2870   1.927       .  S
O2865      C2874   1.281       .  A
O2866     Ni2870   1.918       .  S
O2866      C2873   1.285       .  A
O2867     Ni2870   1.919       .  S
O2867      C2872   1.284       .  A
O2868     Ni2870   1.927       .  S
O2868      C2871   1.281       .  A
Ni2869    Ni2870   2.383       .  S
C2875      C2876   1.391       .  A
C2875      C2880   1.392       .  A
C2875      C2939   1.472       .  S
C2876      H2881   1.083       .  S
C2877      C2878   1.420       .  A
C2877      C2920   1.489   1_545  S
C2878      H2882   1.083   1_545  S
C2879      C2880   1.404       .  A
C2880      H2883   1.084       .  S
C2884      C2885   1.393       .  A
C2884      C2889   1.392       .  A
C2884      C2936   1.473       .  S
C2885      C2886   1.405       .  A
C2885      H2890   1.083       .  S
C2886      C2887   1.420       .  A
C2886      C2931   1.490       .  S
C2887      C2888   1.419       .  A
C2887      H2891   1.083       .  S
C2888      C2889   1.404       .  A
C2888      C2905   1.490       .  S
C2889      H2892   1.084       .  S
O2893     Ni2901   1.926       .  S
O2893      C2903   1.280       .  A
O2894     Ni2901   1.919       .  S
O2894      C2904   1.285       .  A
O2895     Ni2901   1.919       .  S
O2895      C2905   1.285       .  A
O2896     Ni2901   1.927       .  S
O2896      C2906   1.281       .  A
O2897     Ni2902   1.919       .  S
O2897      C2906   1.285       .  A
O2898     Ni2902   1.929       .  S
O2898      C2905   1.281       .  A
O2899     Ni2902   1.933       .  S
O2899      C2904   1.282       .  A
O2900     Ni2902   1.922       .  S
O2900      C2903   1.286       .  A
Ni2901    Ni2902   2.383       .  S
O2907     Ni2915   1.925       .  S
O2907      C2917   1.280       .  A
O2908     Ni2915   1.913       .  S
O2908      C2918   1.284       .  A
O2909     Ni2915   1.917       .  S
O2909      C2919   1.285       .  A
O2910     Ni2915   1.929       .  S
O2910      C2920   1.281       .  A
O2911     Ni2916   1.916       .  S
O2911      C2920   1.284       .  A
O2912     Ni2916   1.925       .  S
O2912      C2919   1.280       .  A
O2913     Ni2916   1.924       .  S
O2913      C2918   1.280       .  A
O2914     Ni2916   1.915       .  S
O2914      C2917   1.285       .  A
Ni2915    Ni2916   2.384       .  S
O2921     Ni2929   1.928       .  S
O2921      C2931   1.281       .  A
O2922     Ni2929   1.918       .  S
O2922      C2932   1.284       .  A
O2923     Ni2929   1.921       .  S
O2923      C2933   1.286       .  A
O2924     Ni2929   1.931       .  S
O2924      C2934   1.282       .  A
O2925     Ni2930   1.917       .  S
O2925      C2934   1.284       .  A
O2926     Ni2930   1.925       .  S
O2926      C2933   1.280       .  A
O2927     Ni2930   1.927       .  S
O2927      C2932   1.281       .  A
O2928     Ni2930   1.920       .  S
O2928      C2931   1.285       .  A
Ni2929    Ni2930   2.383       .  S
C2935      C2936   1.409       .  A
C2935      C2940   1.404       .  A
C2935     Br2942   1.930       .  S
C2936      C2937   1.409       .  A
C2937      C2938   1.405       .  A
C2937     Br2944   1.931       .  S
C2938      C2939   1.409       .  A
C2938     Br2943   1.932       .  S
C2939      C2940   1.408       .  A
C2940     Br2941   1.931       .  S
C2945      C2946   1.409       .  A
C2945      C2950   1.404       .  A
C2945     Br2952   1.931       .  S
C2946      C2947   1.408       .  A
C2947      C2948   1.403       .  A
C2947     Br2954   1.931       .  S
C2948      C2949   1.408       .  A
C2948     Br2953   1.931       .  S
C2949      C2950   1.408       .  A
C2950     Br2951   1.928       .  S
C2955      C2960   1.402       .  A
C2955     Br2962   1.928       .  S
C2956      C2957   1.409       .  A
C2957      C2958   1.405       .  A
C2957     Br2964   1.931       .  S
C2958      C2959   1.408       .  A
C2958     Br2963   1.930       .  S
C2960     Br2961   1.930       .  S
C2965      C2966   1.410       .  A
C2965      C2970   1.403       .  A
C2965     Br2972   1.933       .  S
C2966      C2967   1.410       .  A
C2967      C2968   1.402       .  A
C2967     Br2974   1.933       .  S
C2968      C2969   1.409       .  A
C2968     Br2973   1.934       .  S
C2969      C2970   1.410       .  A
C2975      C2976   1.409       .  A
C2975      C2980   1.402       .  A
C2975     Br2982   1.931       .  S
C2976      C2977   1.409       .  A
C2977      C2978   1.402       .  A
C2977     Br2984   1.933       .  S
C2978      C2979   1.409       .  A
C2978     Br2983   1.933       .  S
C2979      C2980   1.408       .  A
C2980     Br2981   1.932       .  S
C2985      C2990   1.400       .  A
C2985     Br2992   1.933       .  S
C2987      C2988   1.406       .  A
C2987     Br2994   1.931       .  S
C2988     Br2993   1.931       .  S
C2990     Br2991   1.933       .  S
C2995      C3000   1.403       .  A
C2995     Br3002   1.931       .  S
C2996      C2997   1.407       .  A
C2997      C2998   1.401       .  A
C2997     Br3004   1.930       .  S
C2998      C2999   1.408   1_556  A
C2998     Br3003   1.932       .  S
C3000     Br3001   1.931       .  S
C3005      C3006   1.408       .  A
C3005      C3010   1.405       .  A
C3006      C3007   1.408       .  A
C3007      C3008   1.403       .  A
C3007     Br3014   1.931       .  S
C3008      C3009   1.408       .  A
C3008     Br3013   1.930       .  S
C3009      C3010   1.409       .  A
C3010     Br3011   1.930       .  S
C3015      C3016   1.409       .  A
C3015      C3020   1.402       .  A
C3015     Br3022   1.933       .  S
C3016      C3017   1.408       .  A
C3017      C3018   1.402       .  A
C3017     Br3024   1.932       .  S
C3018      C3019   1.409       .  A
C3018     Br3023   1.933       .  S
C3019      C3020   1.410       .  A
