geometry optimzed in LAMMPS
_audit_creation_date              2020-11-30 
_audit_creation_method            'lammps2cif' 
_symmetry_space_group_name_H-M    'P1' 
_symmetry_Int_Tables_number       1 
_symmetry_cell_setting            triclinic 
loop_ 
_symmetry_equiv_pos_as_xyz 
  x,y,z 
_cell_length_a                    27.80387175 
_cell_length_b                    27.881634811373956 
_cell_length_c                    27.84305631222955 
_cell_angle_alpha                 89.86549042838557 
_cell_angle_beta                  90.01683430292402 
_cell_angle_gamma                 89.98957670447935 
loop_ 
_atom_site_label 
_atom_site_type_symbol 
_atom_site_fract_x 
_atom_site_fract_y 
_atom_site_fract_z 
_atom_site_charge 
O1          O  0.99375839  0.07487177  0.13847572    -0.86700
O2          O  0.00184413  0.08058527  0.86659514    -0.86800
O3          O  0.07536116  0.13784269  0.00469401    -0.88500
O4          O  0.91964679  0.13468270  0.00105807    -0.87200
O5          O  0.86209613  0.07585627  0.99585915    -0.86800
O6          O  0.13516733  0.08136392  0.00549324    -0.88200
O7          O  0.99897612  0.13794594  0.92541181    -0.86700
O8          O  0.99724982  0.13433187  0.08124658    -0.86300
Zr9        Zr  0.99834741  0.09647840  0.00250259     2.84300
O10         O  0.95209185  0.04863184  0.95127383    -1.08200
O11         O  0.04643011  0.04832715  0.05195324    -1.09000
C12         C  0.99485281  0.11922995  0.12505201     1.06500
C13         C  0.00089318  0.12455451  0.88106921     1.06400
C14         C  0.12001730  0.12529950  0.00479508     1.09400
C15         C  0.87567798  0.12008396  0.99797865     1.07200
H16         H  0.06923379  0.07104191  0.93512296     0.32700
O17         O  0.04916702  0.05022324  0.95429512    -1.29200
H18         H  0.92771041  0.06611923  0.06829406     0.32400
O19         O  0.94867493  0.04680567  0.04862155    -1.30900
O20         O  0.00784494  0.92420022  0.86306335    -0.86600
O21         O  0.99280097  0.91865279  0.13501158    -0.88100
O22         O  0.13880551  0.00575772  0.92620158    -0.86700
O23         O  0.86609369  0.99945352  0.91793621    -0.86800
O24         O  0.86031387  0.99693994  0.07390309    -0.86500
O25         O  0.13362773  0.99926670  0.08315013    -0.86300
O26         O  0.08069417  0.86583751  0.00123508    -0.86700
O27         O  0.92351747  0.86309770  0.99712273    -0.86100
O28         O  0.13845538  0.92466523  0.00163498    -0.87200
O29         O  0.86424419  0.92034703  0.99785324    -0.86300
O30         O  0.08186045  0.00328869  0.86637359    -0.86700
O31         O  0.07338918  0.99680593  0.13956715    -0.86500
O32         O  0.91683504  0.99562450  0.13395820    -0.86100
O33         O  0.92633675  0.00136848  0.86169651    -0.86500
O34         O  0.00782997  0.86526508  0.92033168    -0.86800
O35         O  0.99596853  0.86168254  0.07583690    -0.88200
Zr36       Zr  0.00290030  0.00144229  0.90394225     2.83100
Zr37       Zr  0.99658542  0.99780649  0.09741116     2.83500
Zr38       Zr  0.09722832  0.00198115  0.00355313     2.84100
Zr39       Zr  0.90289085  0.99855198  0.99733849     2.83400
Zr40       Zr  0.00151949  0.90328411  0.99888015     2.84200
O41         O  0.95057461  0.94987668  0.04643744    -1.08700
O42         O  0.05108080  0.95329005  0.95299834    -1.08200
C43         C  0.00972127  0.87979894  0.87622579     1.06400
C44         C  0.99246005  0.87472648  0.12017774     1.09000
C45         C  0.12562970  0.00558408  0.88164909     1.06600
C46         C  0.88165641  0.00100367  0.87423814     1.07000
C47         C  0.87298805  0.99547572  0.11854555     1.06500
C48         C  0.11808102  0.99702003  0.12682500     1.06100
C49         C  0.12482283  0.88032359  0.00191999     1.06500
C50         C  0.87899526  0.87643805  0.99753898     1.06000
H51         H  0.06738690  0.93098414  0.07009756     0.32700
O52         O  0.04793453  0.95132162  0.04978567    -1.29800
H53         H  0.93421429  0.93101228  0.92840147     0.32700
O54         O  0.95316023  0.95107914  0.94933750    -1.31200
O55         O  0.99733242  0.41852903  0.36460720    -0.86700
O56         O  0.00385080  0.42210460  0.63648380    -0.86800
O57         O  0.08236495  0.36572866  0.50076664    -0.88500
O58         O  0.92473088  0.36206885  0.50162251    -0.87200
O59         O  0.86525451  0.41921803  0.50392381    -0.86800
O60         O  0.13929764  0.42535250  0.49702680    -0.88200
O61         O  0.00250635  0.36353042  0.57886887    -0.86700
O62         O  0.00101768  0.36187261  0.42404999    -0.86300
Zr63       Zr  0.00262033  0.40266580  0.50090519     2.84300
O64         O  0.95448312  0.45036193  0.55026155    -1.08200
O65         O  0.04921172  0.45076343  0.45012109    -1.09000
C66         C  0.99910490  0.37458183  0.37956809     1.06500
C67         C  0.00255661  0.37783088  0.62287313     1.06400
C68         C  0.12627853  0.38099432  0.49958471     1.09400
C69         C  0.88019070  0.37539458  0.50246432     1.07200
H70         H  0.07311734  0.43294165  0.56694432     0.32700
O71         O  0.05213083  0.45228135  0.54719100    -1.29200
H72         H  0.93097664  0.42870966  0.43398465     0.32400
O73         O  0.95125946  0.44912673  0.45326591    -1.30900
O74         O  0.00655255  0.57800878  0.63507458    -0.86600
O75         O  0.99523859  0.57457010  0.36227552    -0.88100
O76         O  0.13984543  0.50596854  0.57232353    -0.86700
O77         O  0.86789325  0.49559021  0.58266620    -0.86800
O78         O  0.86171947  0.49829607  0.42562212    -0.86500
O79         O  0.13464337  0.49959296  0.41703689    -0.86300
O80         O  0.07516723  0.63754446  0.49586932    -0.86700
O81         O  0.91907223  0.63419876  0.50155417    -0.86100
O82         O  0.13494014  0.58083257  0.49395911    -0.87200
O83         O  0.86190653  0.57464029  0.50156859    -0.86300
O84         O  0.08377344  0.50074189  0.63278908    -0.86700
O85         O  0.07455867  0.49554423  0.36070290    -0.86500
O86         O  0.91867337  0.49755614  0.36611304    -0.86100
O87         O  0.92764173  0.49866863  0.63934551    -0.86500
O88         O  0.00306882  0.63600952  0.57667573    -0.86800
O89         O  0.99319240  0.63372775  0.41954865    -0.88200
Zr90       Zr  0.00390085  0.49997564  0.59641308     2.83100
Zr91       Zr  0.99787265  0.49741136  0.40294261     2.83500
Zr92       Zr  0.09739516  0.50182927  0.49617608     2.84100
Zr93       Zr  0.90363411  0.49758665  0.50272602     2.83400
Zr94       Zr  0.99815786  0.59612876  0.49866407     2.84200
O95         O  0.94981301  0.54589260  0.45201885    -1.08700
O96         O  0.04949624  0.54933614  0.54595312    -1.08200
C97         C  0.00645596  0.62209961  0.62092584     1.06400
C98         C  0.99341780  0.61883736  0.37559729     1.09000
C99         C  0.12729297  0.50407255  0.61687198     1.06600
C100        C  0.88302099  0.49706585  0.62650724     1.07000
C101        C  0.87477382  0.49864661  0.38103688     1.06500
C102        C  0.11921749  0.49654107  0.37338544     1.06100
C103        C  0.11974539  0.62463505  0.49473076     1.06500
C104        C  0.87514585  0.61905044  0.50164537     1.06000
H105        H  0.06543612  0.56865037  0.42753972     0.32700
O106        O  0.04647565  0.54861097  0.44857373    -1.29800
H107        H  0.93255669  0.56730306  0.57028536     0.32700
O108        O  0.95222954  0.54753825  0.54971666    -1.31200
O109        O  0.63428150  0.00050487  0.41834852    -0.86700
O110        O  0.36072833  0.00267331  0.42624045    -0.86800
O111        O  0.49408509  0.92425497  0.36371357    -0.88500
O112        O  0.49707371  0.07902436  0.36383672    -0.87200
O113        O  0.50006611  0.13737035  0.42161851    -0.86800
O114        O  0.49663039  0.86540549  0.42126043    -0.88200
O115        O  0.41764418  0.00383964  0.36652720    -0.86700
O116        O  0.57393017  0.99899084  0.36191407    -0.86300
Zr117      Zr  0.49697188  0.00149654  0.40368629     2.84300
O118        O  0.45040529  0.05038678  0.45336419    -1.08200
O119        O  0.54661610  0.95177192  0.44981507    -1.09000
C120        C  0.61854009  0.99965767  0.37477683     1.06500
C121        C  0.37375633  0.00375492  0.38171731     1.06400
C122        C  0.49502067  0.87996835  0.37711636     1.09400
C123        C  0.49872360  0.12316936  0.37741594     1.07200
H124        H  0.42841810  0.93392388  0.43338622     0.32700
O125        O  0.44915587  0.95344296  0.45311696    -1.29200
H126        H  0.56789387  0.06895376  0.42953632     0.32400
O127        O  0.54810406  0.04920481  0.45007841    -1.30900
O128        O  0.36540689  0.00434550  0.58251622    -0.86600
O129        O  0.63865171  0.99848746  0.57390670    -0.88100
O130        O  0.42064806  0.86577482  0.49909479    -0.86700
O131        O  0.42414486  0.13827599  0.50136678    -0.86800
O132        O  0.58030803  0.13576427  0.49915129    -0.86500
O133        O  0.57644766  0.86359782  0.49741024    -0.86300
O134        O  0.50297613  0.92299151  0.63632990    -0.86700
O135        O  0.50656739  0.07878673  0.63691114    -0.86100
O136        O  0.49896619  0.86471685  0.57826503    -0.87200
O137        O  0.50702697  0.13700697  0.57844382    -0.86300
O138        O  0.36246629  0.92382833  0.50247554    -0.86700
O139        O  0.63558917  0.92092016  0.49382742    -0.86500
O140        O  0.63760932  0.07655838  0.49827784    -0.86100
O141        O  0.36455365  0.08115352  0.50045036    -0.86500
O142        O  0.42568608  0.00326000  0.63884464    -0.86800
O143        O  0.58216387  0.00078444  0.63389821    -0.88200
Zr144      Zr  0.40257962  0.00218353  0.50311457     2.83100
Zr145      Zr  0.59681496  0.99939368  0.49722139     2.88300
Zr146      Zr  0.49878803  0.90431045  0.49992670     2.84100
Zr147      Zr  0.50153018  0.09781507  0.50014753     2.83400
Zr148      Zr  0.50261065  0.00101609  0.59693020     2.84200
O149        O  0.55068151  0.04856740  0.54717975    -1.08700
O150        O  0.45182816  0.95277486  0.55030303    -1.08200
C151        C  0.38097596  0.00439655  0.62629070     1.06400
C152        C  0.62599011  0.99927513  0.61847595     1.09000
C153        C  0.37643745  0.87954440  0.50033408     1.06600
C154        C  0.37967467  0.12500303  0.50045105     1.07000
C155        C  0.62430834  0.12089403  0.49922732     1.06500
C156        C  0.62088758  0.87696678  0.49473872     1.06100
C157        C  0.50151753  0.87888354  0.62238334     1.06500
C158        C  0.50845488  0.12292189  0.62271048     1.06000
H159        H  0.56969127  0.93123203  0.56681806     0.32700
O160        O  0.54933034  0.95158776  0.54744588    -1.29800
H161        H  0.43415702  0.07086728  0.57056058     0.32700
O162        O  0.45314589  0.05038840  0.55009465    -1.31200
O163        O  0.42073349  0.36564967  0.99684506    -0.86700
O164        O  0.42391742  0.63791963  0.99938356    -0.86800
O165        O  0.36209073  0.50220404  0.07346282    -0.88500
O166        O  0.36727864  0.50315549  0.91793966    -0.87200
O167        O  0.42646858  0.50303116  0.86106937    -0.86800
O168        O  0.41857803  0.49909162  0.13348641    -0.88200
O169        O  0.36512757  0.58030701  0.99407428    -0.86700
O170        O  0.36328956  0.42488081  0.99919775    -0.86300
Zr171      Zr  0.40417686  0.50212201  0.99692881     2.84300
O172        O  0.45425990  0.55055611  0.95009955    -1.08200
O173        O  0.45060655  0.45256867  0.04623471    -1.09000
C174        C  0.37676314  0.38056281  0.99863157     1.06500
C175        C  0.37965660  0.62423631  0.99608773     1.06400
C176        C  0.37476433  0.50060046  0.11802407     1.09400
C177        C  0.38180779  0.50317030  0.87402711     1.07200
H178        H  0.43053725  0.56966618  0.06719336     0.32700
O179        O  0.45105921  0.54969310  0.04766552    -1.29200
H180        H  0.43304338  0.43368878  0.92838068     0.32400
O181        O  0.45285893  0.45327703  0.94896985    -1.30900
O182        O  0.58014032  0.63574822  0.00362611    -0.86600
O183        O  0.57729131  0.36342226  0.00174182    -0.88100
O184        O  0.49701944  0.57761389  0.13689230    -0.86700
O185        O  0.50461920  0.58090452  0.86441231    -0.86800
O186        O  0.50304525  0.42487435  0.86179693    -0.86500
O187        O  0.49557888  0.42151707  0.13503497    -0.86300
O188        O  0.63517910  0.49774360  0.08171423    -0.86700
O189        O  0.63982693  0.49815443  0.92602979    -0.86100
O190        O  0.57507585  0.50002260  0.13838868    -0.87200
O191        O  0.58329585  0.49771878  0.86583377    -0.86300
O192        O  0.49964930  0.63644506  0.07930563    -0.86700
O193        O  0.49457644  0.36384960  0.07622730    -0.86500
O194        O  0.50332787  0.36589033  0.91955502    -0.86100
O195        O  0.50176685  0.63823866  0.92344387    -0.86500
O196        O  0.63793744  0.57695262  0.00526669    -0.86800
O197        O  0.63638204  0.42088211  0.00288120    -0.88200
Zr198      Zr  0.50169929  0.59754989  0.00085359     2.83100
Zr199      Zr  0.49962386  0.40396791  0.99850765     2.83500
Zr200      Zr  0.49806078  0.50002407  0.09657118     2.84100
Zr201      Zr  0.50366421  0.50197561  0.90268619     2.83400
Zr202      Zr  0.59767662  0.49945409  0.00260620     2.84200
O203        O  0.55026380  0.45223364  0.95196112    -1.08700
O204        O  0.54878167  0.54839713  0.05025964    -1.08200
C205        C  0.62418843  0.62119034  0.00533175     1.06400
C206        C  0.62172947  0.37688006  0.00305222     1.09000
C207        C  0.49803696  0.62197240  0.12343916     1.06600
C208        C  0.50278693  0.62483957  0.87911140     1.07000
C209        C  0.50356559  0.38059179  0.87545354     1.06500
C210        C  0.49395027  0.37756753  0.12050459     1.06100
C211        C  0.61961049  0.49859982  0.12538444     1.06500
C212        C  0.62707982  0.49672710  0.88146065     1.06000
H213        H  0.56648994  0.43055490  0.06983906     0.32700
O214        O  0.54736329  0.45100042  0.04934185    -1.29800
H215        H  0.57236247  0.56938563  0.93359047     0.32700
O216        O  0.55151502  0.54947578  0.95289133    -1.31200
C217        C  0.49275874  0.34008105  0.15788859    -0.12100
C218        C  0.46106783  0.30058719  0.15553541     0.03300
C219        C  0.46162081  0.26596619  0.19201033    -0.12700
C220        C  0.49355018  0.26990727  0.23075305     0.18200
C221        C  0.52566340  0.30879217  0.23271730    -0.09700
C222        C  0.52466962  0.34379466  0.19678056    -0.02700
H223        H  0.43697605  0.23591866  0.19027355     0.04700
C224        C  0.49390707  0.23244174  0.26817965     0.20200
H225        H  0.54971665  0.37351166  0.19864984     0.09900
C226        C  0.51766273  0.18919970  0.25901047    -0.16100
C227        C  0.52010500  0.15323354  0.29398706     0.02900
C228        C  0.49824884  0.16041458  0.33938092    -0.11400
C229        C  0.47443068  0.20400666  0.34826943    -0.01400
C230        C  0.47184192  0.23970581  0.31299997    -0.06600
H231        H  0.53496276  0.18369754  0.22458617     0.05900
H232        H  0.45692822  0.21003896  0.38248937     0.09300
Br233      Br  0.57272323  0.31439290  0.28277706    -0.06300
Br234      Br  0.41482610  0.29318323  0.10488899    -0.03200
Br235      Br  0.55612395  0.09669321  0.27771533    -0.00400
Br236      Br  0.43685296  0.29732745  0.32700235    -0.04700
C237        C  0.49335809  0.84297804  0.33897770    -0.12100
C238        C  0.51506782  0.84990769  0.29348898     0.03300
C239        C  0.51317384  0.81353631  0.25908042    -0.12700
C240        C  0.48881303  0.77051274  0.26825816     0.18200
C241        C  0.46603055  0.76396102  0.31294984    -0.09700
C242        C  0.46892048  0.79973890  0.34799778    -0.02700
H243        H  0.53112159  0.81871753  0.22491442     0.04700
C244        C  0.48950406  0.73225571  0.23147092     0.20200
H245        H  0.45109952  0.79407988  0.38214862     0.09900
C246        C  0.51385727  0.68935764  0.24143362    -0.16100
C247        C  0.51715310  0.65297829  0.20707878     0.02900
C248        C  0.49599211  0.65935792  0.16126868    -0.11400
C249        C  0.47182869  0.70263525  0.15138285    -0.01400
C250        C  0.46835334  0.73879617  0.18598109    -0.06600
H251        H  0.53101930  0.68444052  0.27604815     0.05900
H252        H  0.45487730  0.70816389  0.11676263     0.09300
Br253      Br  0.42869597  0.70777175  0.32691753    -0.06300
Br254      Br  0.54940371  0.90704669  0.27594983    -0.03200
Br255      Br  0.55347446  0.59703257  0.22462302    -0.00400
Br256      Br  0.43303321  0.79581265  0.16999606    -0.04700
C257        C  0.50273808  0.84159239  0.66001536    -0.12100
C258        C  0.53584682  0.84351160  0.69839806     0.03300
C259        C  0.53515646  0.80793701  0.73385441    -0.12700
C260        C  0.50247529  0.76982124  0.73127404     0.18200
C261        C  0.47016463  0.76717243  0.69251569    -0.09700
C262        C  0.47026900  0.80317183  0.65751457    -0.02700
H263        H  0.56067096  0.80958317  0.76322784     0.04700
C264        C  0.50302902  0.73288319  0.76913379     0.20200
H265        H  0.44451502  0.80150790  0.62857095     0.09900
C266        C  0.47110075  0.73679176  0.80781490    -0.16100
C267        C  0.47092732  0.70248563  0.84454539     0.02900
C268        C  0.50244039  0.66276366  0.84205441    -0.11400
C269        C  0.53443974  0.65915104  0.80319006    -0.01400
C270        C  0.53550539  0.69432524  0.76735295    -0.06600
H271        H  0.44634901  0.76676979  0.80946040     0.05900
H272        H  0.55938179  0.62935403  0.80121196     0.09300
Br273      Br  0.42618799  0.71458683  0.68545119    -0.06300
Br274      Br  0.58495285  0.89173410  0.70248265    -0.03200
Br275      Br  0.42566189  0.71114948  0.89593334    -0.00400
Br276      Br  0.58234547  0.68905626  0.71705138    -0.04700
C277        C  0.50571412  0.34365631  0.83763517    -0.12100
C278        C  0.47430256  0.34409606  0.79778624     0.03300
C279        C  0.47770629  0.30805408  0.76299454    -0.12700
C280        C  0.51245259  0.27176490  0.76684870     0.18200
C281        C  0.54453301  0.27201852  0.80593471    -0.09700
C282        C  0.54058107  0.30741377  0.84122537    -0.02700
H283        H  0.45271575  0.30790138  0.73312606     0.04700
C284        C  0.51290738  0.23266248  0.73106786     0.20200
H285        H  0.56534949  0.30706650  0.87128532     0.09900
C286        C  0.54425523  0.23506761  0.69171908    -0.16100
C287        C  0.54406903  0.19916564  0.65655726     0.02900
C288        C  0.51162593  0.16033383  0.66023899    -0.11400
C289        C  0.48126258  0.15742379  0.70048076    -0.01400
C290        C  0.48168116  0.19323005  0.73565719    -0.06600
H291        H  0.56903243  0.26488608  0.68847443     0.05900
H292        H  0.45650041  0.12763514  0.70414917     0.09300
Br293      Br  0.59412793  0.22472147  0.81268774    -0.06300
Br294      Br  0.42426313  0.39107249  0.79058948    -0.03200
Br295      Br  0.59104506  0.20324568  0.60618737    -0.00400
Br296      Br  0.43916149  0.18712620  0.78961152    -0.04700
C297        C  0.84302093  0.33768905  0.50144483    -0.12100
C298        C  0.84541549  0.29896903  0.46894415     0.03300
C299        C  0.80909906  0.26430044  0.46880303    -0.12700
C300        C  0.76987778  0.26793355  0.50010250     0.18200
C301        C  0.76694398  0.30680060  0.53202602    -0.09700
C302        C  0.80335147  0.34137669  0.53247397    -0.02700
H303        H  0.81106714  0.23471022  0.44371749     0.04700
C304        C  0.73260220  0.23047095  0.49931034     0.20200
H305        H  0.80082616  0.37110028  0.55735171     0.09900
C306        C  0.73993995  0.18835293  0.52578375    -0.16100
C307        C  0.70517774  0.15215011  0.52644724     0.02900
C308        C  0.66228951  0.15784643  0.49975443    -0.11400
C309        C  0.65513151  0.20028077  0.47337042    -0.01400
C310        C  0.68991776  0.23640030  0.47290290    -0.06600
H311        H  0.77260523  0.18398215  0.54657971     0.05900
H312        H  0.62250263  0.20521636  0.45264568     0.09300
Br313      Br  0.71385976  0.31376682  0.57549164    -0.06300
Br314      Br  0.89504554  0.29358287  0.42135595    -0.03200
Br315      Br  0.71715423  0.09768802  0.56715639    -0.00400
Br316      Br  0.67777484  0.29306980  0.43562654    -0.04700
C317        C  0.83689751  0.65556597  0.50127128    -0.12100
C318        C  0.82885865  0.68555035  0.54104160     0.03300
C319        C  0.79290093  0.72066048  0.53906013    -0.12700
C320        C  0.76448422  0.72647479  0.49773625     0.18200
C321        C  0.77272092  0.69641948  0.45784347    -0.09700
C322        C  0.80840918  0.66102489  0.46008034    -0.02700
H323        H  0.78711257  0.74361883  0.56986465     0.04700
C324        C  0.72715548  0.76454322  0.49674314     0.20200
H325        H  0.81442405  0.63809174  0.42928589     0.09900
C326        C  0.73211548  0.80322506  0.46475124    -0.16100
C327        C  0.69781787  0.84000637  0.46306610     0.02900
C328        C  0.65774486  0.83868414  0.49418811    -0.11400
C329        C  0.65275950  0.79986924  0.52601647    -0.01400
C330        C  0.68706111  0.76319092  0.52771462    -0.06600
H331        H  0.76277794  0.80466760  0.44078366     0.05900
H332        H  0.62224921  0.79834023  0.55018682     0.09300
Br333      Br  0.73594776  0.70174387  0.39973407    -0.06300
Br334      Br  0.86482312  0.67849659  0.59935230    -0.03200
Br335      Br  0.70610927  0.88923654  0.41547045    -0.00400
Br336      Br  0.67673518  0.71163434  0.57230963    -0.04700
C337        C  0.16500082  0.34499505  0.50171064    -0.12100
C338        C  0.16435884  0.30746667  0.53578491     0.03300
C339        C  0.20163392  0.27383954  0.53653574    -0.12700
C340        C  0.23976675  0.27706369  0.50384402     0.18200
C341        C  0.24109919  0.31498783  0.47050625    -0.09700
C342        C  0.20400346  0.34885206  0.46985710    -0.02700
H343        H  0.20072584  0.24480877  0.56246239     0.04700
C344        C  0.27619952  0.23880412  0.50310014     0.20200
H345        H  0.20516701  0.37778603  0.44382841     0.09900
C346        C  0.27078258  0.20121180  0.47026448    -0.16100
C347        C  0.30408818  0.16373053  0.46861115     0.02900
C348        C  0.34345447  0.16351545  0.50058678    -0.11400
C349        C  0.34907191  0.20160556  0.53303470    -0.01400
C350        C  0.31572434  0.23904432  0.53459785    -0.06600
H351        H  0.24065358  0.20129502  0.44556293     0.05900
H352        H  0.37933775  0.20201696  0.55756977     0.09300
Br353      Br  0.29268079  0.32136823  0.42512462    -0.06300
Br354      Br  0.11500668  0.30187514  0.58372488    -0.03200
Br355      Br  0.29571301  0.11599632  0.41976509    -0.00400
Br356      Br  0.32592716  0.28985878  0.57976893    -0.04700
C357        C  0.33891593  0.84169449  0.49759373    -0.12100
C358        C  0.34719709  0.79384144  0.51297980     0.03300
C359        C  0.31051075  0.75985342  0.50968694    -0.12700
C360        C  0.26600239  0.77151173  0.48940826     0.18200
C361        C  0.25808127  0.81834422  0.47225508    -0.09700
C362        C  0.29403293  0.85311669  0.47711894    -0.02700
H363        H  0.31678028  0.72382182  0.52298537     0.04700
C364        C  0.22786343  0.73463895  0.48853440     0.20200
H365        H  0.28724088  0.88892692  0.46353592     0.09900
C366        C  0.18714728  0.74093663  0.51749675    -0.16100
C367        C  0.15165002  0.70556405  0.52033659     0.02900
C368        C  0.15645251  0.66293713  0.49339601    -0.11400
C369        C  0.19752913  0.65658216  0.46470033    -0.01400
C370        C  0.23312676  0.69190353  0.46219205    -0.06600
H371        H  0.18360284  0.77310307  0.53898122     0.05900
H372        H  0.20182492  0.62411982  0.44380635     0.09300
Br373      Br  0.19992262  0.83556977  0.43938905    -0.06300
Br374      Br  0.40691093  0.77117902  0.53918145    -0.03200
Br375      Br  0.09985766  0.71615141  0.56472868    -0.00400
Br376      Br  0.28788089  0.68042836  0.42180266    -0.04700
C377        C  0.83644678  0.49951449  0.34407716    -0.12100
C378        C  0.84318376  0.52172940  0.29878370     0.03300
C379        C  0.80681482  0.51962458  0.26426918    -0.12700
C380        C  0.76296941  0.49702839  0.27420327     0.18200
C381        C  0.75547809  0.47605548  0.31955497    -0.09700
C382        C  0.79212463  0.47722620  0.35397769    -0.02700
H383        H  0.81233630  0.53664673  0.22967244     0.04700
C384        C  0.72505777  0.49736086  0.23712632     0.20200
H385        H  0.78596049  0.46039638  0.38854133     0.09900
C386        C  0.71290283  0.45456386  0.21363101    -0.16100
C387        C  0.67830168  0.45442014  0.17713811     0.02900
C388        C  0.65573392  0.49755472  0.16368597    -0.11400
C389        C  0.66764048  0.54022996  0.18730717    -0.01400
C390        C  0.70202803  0.54039182  0.22391968    -0.06600
H391        H  0.73050646  0.42132945  0.22360390     0.05900
H392        H  0.65035874  0.57352297  0.17702481     0.09300
Br393      Br  0.69515552  0.44723764  0.33657009    -0.06300
Br394      Br  0.89912018  0.55892136  0.28251609    -0.03200
Br395      Br  0.66208688  0.39464381  0.14717721    -0.00400
Br396      Br  0.71571077  0.59981750  0.25582843    -0.04700
C397        C  0.15583809  0.49483978  0.33503089    -0.12100
C398        C  0.15184509  0.46349983  0.29539671     0.03300
C399        C  0.18748123  0.46348736  0.25987124    -0.12700
C400        C  0.22731456  0.49404274  0.26335172     0.18200
C401        C  0.23153978  0.52498573  0.30289540    -0.09700
C402        C  0.19609370  0.52507162  0.33843437    -0.02700
H403        H  0.18437809  0.43927792  0.22964400     0.04700
C404        C  0.26410151  0.49380430  0.22527723     0.20200
H405        H  0.19969692  0.54934412  0.36856423     0.09900
C406        C  0.25823289  0.52396319  0.18540445    -0.16100
C407        C  0.29373168  0.52687166  0.14992471     0.02900
C408        C  0.33615598  0.49925453  0.15438704    -0.11400
C409        C  0.34169198  0.46894594  0.19439149    -0.01400
C410        C  0.30593240  0.46578120  0.22947258    -0.06600
H411        H  0.22623865  0.54596073  0.18235804     0.05900
H412        H  0.37371191  0.44707265  0.19805750     0.09300
Br413      Br  0.28501049  0.56797401  0.30937486    -0.06300
Br414      Br  0.10055499  0.41773374  0.28944656    -0.03200
Br415      Br  0.28334719  0.57147058  0.09820634    -0.00400
Br416      Br  0.31565952  0.42269751  0.28239228    -0.04700
C417        C  0.16607083  0.50451572  0.65249710    -0.12100
C418        C  0.19646250  0.54449371  0.65797593     0.03300
C419        C  0.23297451  0.54345509  0.69248716    -0.12700
C420        C  0.24060029  0.50241408  0.72078051     0.18200
C421        C  0.21072719  0.46200127  0.71434022    -0.09700
C422        C  0.17341648  0.46360458  0.68080223    -0.02700
H423        H  0.25506537  0.57501340  0.69774668     0.04700
C424        C  0.27722955  0.50354165  0.75926931     0.20200
H425        H  0.15054462  0.43247459  0.67616428     0.09900
C426        C  0.26213342  0.49711536  0.80677963    -0.16100
C427        C  0.29494497  0.49624442  0.84466815     0.02900
C428        C  0.34468617  0.50345476  0.83543855    -0.11400
C429        C  0.35940140  0.51113638  0.78756390    -0.01400
C430        C  0.32633701  0.51119017  0.74973681    -0.06600
H431        H  0.22424241  0.49204284  0.81439338     0.05900
H432        H  0.39697467  0.51698204  0.77915617     0.09300
Br433      Br  0.22026978  0.40320523  0.74920183    -0.06300
Br434      Br  0.18809461  0.60192338  0.62075747    -0.03200
Br435      Br  0.26766253  0.48319784  0.90689371    -0.00400
Br436      Br  0.35055037  0.52052364  0.68580393    -0.04700
C437        C  0.84638750  0.49680807  0.66510757    -0.12100
C438        C  0.80111129  0.51923663  0.65920280     0.03300
C439        C  0.76739121  0.51765365  0.69632701    -0.12700
C440        C  0.77783200  0.49444926  0.73968521     0.18200
C441        C  0.82281274  0.47230358  0.74605446    -0.09700
C442        C  0.85677954  0.47375990  0.70896791    -0.02700
H443        H  0.73287174  0.53508936  0.69156583     0.04700
C444        C  0.74083814  0.49372471  0.77753020     0.20200
H445        H  0.89115738  0.45620297  0.71420726     0.09900
C446        C  0.70257197  0.46129427  0.77373862    -0.16100
C447        C  0.66537052  0.46128892  0.80750303     0.02900
C448        C  0.66601855  0.49457218  0.84560534    -0.11400
C449        C  0.70492234  0.52643102  0.84976370    -0.01400
C450        C  0.74203934  0.52641037  0.81589315    -0.06600
H451        H  0.70173019  0.43585879  0.74438217     0.05900
H452        H  0.70592421  0.55210689  0.87890551     0.09300
Br453      Br  0.83871100  0.43909496  0.80443142    -0.06300
Br454      Br  0.78366578  0.55516439  0.60281415    -0.03200
Br455      Br  0.61640086  0.41321243  0.80132697    -0.00400
Br456      Br  0.79283234  0.57252459  0.82237230    -0.04700
C457        C  0.66163495  0.65852463  0.00601537    -0.12100
C458        C  0.70353513  0.65437002  0.03439908     0.03300
C459        C  0.73820016  0.69063570  0.03299935    -0.12700
C460        C  0.73153506  0.73131029  0.00414972     0.18200
C461        C  0.68969723  0.73573875  0.97615490    -0.09700
C462        C  0.65510757  0.69954204  0.97735515    -0.02700
H463        H  0.77027164  0.68740979  0.05489575     0.04700
C464        C  0.76903189  0.76843520  0.00316620     0.20200
H465        H  0.62323915  0.70316692  0.95522079     0.09900
C466        C  0.81025672  0.76068307  0.97555934    -0.16100
C467        C  0.84640605  0.79532100  0.97307556     0.02900
C468        C  0.84164836  0.83869047  0.99876172    -0.11400
C469        C  0.80009865  0.84614558  0.02660974    -0.01400
C470        C  0.76406185  0.81126117  0.02914863    -0.06600
H471        H  0.81397825  0.72772779  0.95532824     0.05900
H472        H  0.79592861  0.87891272  0.04703808     0.09300
Br473      Br  0.67869530  0.79007361  0.93515354    -0.06300
Br474      Br  0.71404719  0.60197435  0.07805658    -0.03200
Br475      Br  0.89947529  0.78206762  0.93155883    -0.00400
Br476      Br  0.70906697  0.82277149  0.06911913    -0.04700
C477        C  0.65898557  0.33902272  0.00405212    -0.12100
C478        C  0.65381546  0.29683856  0.03187475     0.03300
C479        C  0.68961128  0.26157826  0.03066066    -0.12700
C480        C  0.73075709  0.26762019  0.00230688     0.18200
C481        C  0.73632460  0.30970185  0.97498985    -0.09700
C482        C  0.70071711  0.34510220  0.97619558    -0.02700
H483        H  0.68554022  0.22941094  0.05219309     0.04700
C484        C  0.76763056  0.22966120  0.00170502     0.20200
H485        H  0.70529464  0.37716710  0.95461160     0.09900
C486        C  0.76446226  0.19298324  0.96749418    -0.16100
C487        C  0.79925013  0.15675078  0.96557802     0.02900
C488        C  0.83801154  0.15720968  0.99831176    -0.11400
C489        C  0.84108631  0.19412393  0.03237088    -0.01400
C490        C  0.80609611  0.22998410  0.03448923    -0.06600
H491        H  0.73505451  0.19284531  0.94195051     0.05900
H492        H  0.87052427  0.19470219  0.05789069     0.09300
Br493      Br  0.79184785  0.31990140  0.93533722    -0.06300
Br494      Br  0.60045279  0.28642447  0.07446323    -0.03200
Br495      Br  0.79364487  0.10946207  0.91580838    -0.00400
Br496      Br  0.81213044  0.27850271  0.08283240    -0.04700
C497        C  0.34260793  0.66193987  0.99602691    -0.12100
C498        C  0.30681510  0.66435759  0.96020469     0.03300
C499        C  0.27173358  0.70031455  0.96221052    -0.12700
C500        C  0.27166753  0.73385688  0.99965960     0.18200
C501        C  0.30734452  0.73142112  0.03538278    -0.09700
C502        C  0.34272969  0.69589412  0.03313383    -0.02700
H503        H  0.24460309  0.70236389  0.93433814     0.04700
C504        C  0.23462474  0.77172037  0.00048909     0.20200
H505        H  0.36998932  0.69425990  0.06092146     0.09900
C506        C  0.19328564  0.76523148  0.02845713    -0.16100
C507        C  0.15754499  0.80051233  0.03008307     0.02900
C508        C  0.16272176  0.84304925  0.00280957    -0.11400
C509        C  0.20482153  0.84978756  0.97562506    -0.01400
C510        C  0.24059197  0.81446685  0.97430849    -0.06600
H511        H  0.18907954  0.73275034  0.04948112     0.05900
H512        H  0.20963561  0.88231247  0.95480769     0.09300
Br513      Br  0.30898238  0.77592986  0.08775210    -0.06300
Br514      Br  0.30602214  0.62138533  0.90643661    -0.03200
Br515      Br  0.10428592  0.78985361  0.07280052    -0.00400
Br516      Br  0.29741042  0.82587503  0.93686112    -0.04700
C517        C  0.15675677  0.16416971  0.00380935    -0.12100
C518        C  0.14790849  0.20960913  0.98237174     0.03300
C519        C  0.18415886  0.24446074  0.98161804    -0.12700
C520        C  0.22929477  0.23532567  0.00185004     0.18200
C521        C  0.23822631  0.19068859  0.02356177    -0.09700
C522        C  0.20233099  0.15548168  0.02414013    -0.02700
H523        H  0.17724215  0.27886805  0.96479743     0.04700
C524        C  0.26670267  0.27288029  0.00020006     0.20200
H525        H  0.21003308  0.12130057  0.04104008     0.09900
C526        C  0.26917559  0.30658797  0.03737912    -0.16100
C527        C  0.30483213  0.34199804  0.03744739     0.02900
C528        C  0.33872975  0.34387542  0.99982448    -0.11400
C529        C  0.33635651  0.30995755  0.96278152    -0.01400
C530        C  0.30041960  0.27483809  0.96254093    -0.06600
H531        H  0.24362343  0.30493746  0.06670963     0.05900
H532        H  0.36219518  0.31116719  0.93367117     0.09300
Br533      Br  0.29899201  0.17680874  0.05315158    -0.06300
Br534      Br  0.08851828  0.22652609  0.95118050    -0.03200
Br535      Br  0.30763223  0.38480702  0.09125612    -0.00400
Br536      Br  0.29851221  0.23041401  0.91009988    -0.04700
C537        C  0.66464459  0.99919765  0.65490618    -0.12100
C538        C  0.70713253  0.97183590  0.64940740     0.03300
C539        C  0.74266202  0.97324115  0.68497793    -0.12700
C540        C  0.73659863  0.00135223  0.72615252     0.18200
C541        C  0.69463947  0.02893490  0.73152199    -0.09700
C542        C  0.65896185  0.02747004  0.69622936    -0.02700
H543        H  0.77483247  0.95168449  0.68093209     0.04700
C544        C  0.77389562  0.00064996  0.76376103     0.20200
H545        H  0.62688909  0.04905871  0.70082405     0.09900
C546        C  0.81582220  0.02781139  0.75753154    -0.16100
C547        C  0.85128262  0.02886934  0.79318849     0.02900
C548        C  0.84520927  0.00161156  0.83564439    -0.11400
C549        C  0.80301243  0.97452604  0.84163525    -0.01400
C550        C  0.76752946  0.97389388  0.80614162    -0.06600
H551        H  0.82046098  0.04905091  0.72522394     0.05900
H552        H  0.79773207  0.95341864  0.87393163     0.09300
Br553      Br  0.68505808  0.06958028  0.78621373    -0.06300
Br554      Br  0.71761276  0.92949804  0.59602949    -0.03200
Br555      Br  0.90504249  0.07112352  0.78334180    -0.00400
Br556      Br  0.71097029  0.93589917  0.81688062    -0.04700
C557        C  0.34458342  0.00708227  0.66495528    -0.12100
C558        C  0.34922944  0.98088708  0.70824020     0.03300
C559        C  0.31336761  0.98404628  0.74330760    -0.12700
C560        C  0.27282228  0.01307754  0.73628878     0.18200
C561        C  0.26847874  0.03995493  0.69373240    -0.09700
C562        C  0.30405955  0.03660135  0.65837031    -0.02700
H563        H  0.31657106  0.96292856  0.77587588     0.04700
C564        C  0.23413535  0.01215642  0.77253571     0.20200
H565        H  0.30011505  0.05731457  0.62562613     0.09900
C566        C  0.23099273  0.04881270  0.80681863    -0.16100
C567        C  0.19566668  0.04732555  0.84267270     0.02900
C568        C  0.16350704  0.00832662  0.84484798    -0.11400
C569        C  0.16632342  0.97216016  0.81007626    -0.01400
C570        C  0.20108744  0.97398819  0.77389417    -0.06600
H571        H  0.25589865  0.07866333  0.80550586     0.05900
H572        H  0.14164640  0.94219731  0.81135336     0.09300
Br573      Br  0.21401961  0.08060480  0.68200666    -0.06300
Br574      Br  0.40161205  0.93752606  0.72038697    -0.03200
Br575      Br  0.19059884  0.10060732  0.88590823    -0.00400
Br576      Br  0.20167431  0.92425545  0.72634320    -0.04700
C577        C  0.15433394  0.99514211  0.16547122    -0.12100
C578        C  0.19640814  0.96699332  0.16153046     0.03300
C579        C  0.23107918  0.96852418  0.19789415    -0.12700
C580        C  0.22404347  0.99686882  0.23876389     0.18200
C581        C  0.18136126  0.02342739  0.24367060    -0.09700
C582        C  0.14691742  0.02247319  0.20713642    -0.02700
H583        H  0.26347381  0.94718105  0.19454375     0.04700
C584        C  0.26187028  0.99867429  0.27574776     0.20200
H585        H  0.11461220  0.04387697  0.21091956     0.09900
C586        C  0.30111180  0.02948610  0.26911227    -0.16100
C587        C  0.33759064  0.03238149  0.30356951     0.02900
C588        C  0.33523295  0.00354275  0.34526847    -0.11400
C589        C  0.29544679  0.97317656  0.35201636    -0.01400
C590        C  0.25896922  0.97052519  0.31757591    -0.06600
H591        H  0.30300402  0.05180402  0.23725462     0.05900
H592        H  0.29310854  0.95081671  0.38381724     0.09300
Br593      Br  0.16909284  0.06187335  0.29939982    -0.06300
Br594      Br  0.20693910  0.92327364  0.10929691    -0.03200
Br595      Br  0.38774315  0.07868573  0.29326927    -0.00400
Br596      Br  0.20606984  0.92773704  0.32862836    -0.04700
C597        C  0.65452858  0.99950340  0.33641238    -0.12100
C598        C  0.68163784  0.04069065  0.32566096     0.03300
C599        C  0.71495036  0.03957572  0.28800435    -0.12700
C600        C  0.72211067  0.99745791  0.26134454     0.18200
C601        C  0.69560601  0.95594715  0.27308685    -0.09700
C602        C  0.66201762  0.95737297  0.31030976    -0.02700
H603        H  0.73590250  0.07135625  0.27998189     0.04700
C604        C  0.75966799  0.99655705  0.22379354     0.20200
H605        H  0.64235073  0.92517864  0.31961092     0.09900
C606        C  0.80087554  0.96865191  0.23143004    -0.16100
C607        C  0.83770124  0.96704355  0.19735941     0.02900
C608        C  0.83409776  0.99457668  0.15484426    -0.11400
C609        C  0.79244101  0.02216826  0.14702774    -0.01400
C610        C  0.75539795  0.02335443  0.18107012    -0.06600
H611        H  0.80421574  0.94765984  0.26406784     0.05900
H612        H  0.78888257  0.04333290  0.11453092     0.09300
Br613      Br  0.70365836  0.89649925  0.23944729    -0.06300
Br614      Br  0.67436006  0.09875619  0.36187194    -0.03200
Br615      Br  0.89009522  0.92391601  0.20985060    -0.00400
Br616      Br  0.69920508  0.06090520  0.16707732    -0.04700
C617        C  0.00165281  0.34076869  0.66090978    -0.12100
C618        C  0.97578950  0.29733601  0.65587281     0.03300
C619        C  0.97564324  0.26395465  0.69340426    -0.12700
C620        C  0.00111553  0.27268880  0.73588918     0.18200
C621        C  0.02783656  0.31520216  0.74055564    -0.09700
C622        C  0.02743350  0.34908387  0.70352676    -0.02700
H623        H  0.95549203  0.23092339  0.68949624     0.04700
C624        C  0.00120201  0.23576942  0.77385163     0.20200
H625        H  0.04828541  0.38164417  0.70766524     0.09900
C626        C  0.02698717  0.19341702  0.76606539    -0.16100
C627        C  0.02807125  0.15719097  0.80073496     0.02900
C628        C  0.00194157  0.16263256  0.84395561    -0.11400
C629        C  0.97643079  0.20551752  0.85180950    -0.01400
C630        C  0.97592809  0.24197796  0.81717006    -0.06600
H631        H  0.04707378  0.18889347  0.73303236     0.05900
H632        H  0.95628636  0.21048403  0.88472960     0.09300
Br633      Br  0.06723969  0.32730113  0.79579128    -0.06300
Br634      Br  0.93835417  0.28175064  0.59995568    -0.03200
Br635      Br  0.06891324  0.10311530  0.78790751    -0.00400
Br636      Br  0.93962386  0.29916293  0.82997302    -0.04700
C637        C  0.00949053  0.65967268  0.65842180    -0.12100
C638        C  0.03587649  0.65312293  0.70143464     0.03300
C639        C  0.03647453  0.68930707  0.73611990    -0.12700
C640        C  0.00987401  0.73160430  0.72992245     0.18200
C641        C  0.98356128  0.73820558  0.68713753    -0.09700
C642        C  0.98448372  0.70293794  0.65153591    -0.02700
H643        H  0.05776046  0.68432325  0.76835143     0.04700
C644        C  0.01111441  0.76885967  0.76783764     0.20200
H645        H  0.96435951  0.70889211  0.61880007     0.09900
C646        C  0.02740684  0.81504315  0.75629552    -0.16100
C647        C  0.02753785  0.85182852  0.79039920     0.02900
C648        C  0.01285860  0.84220455  0.83824867    -0.11400
C649        C  0.99952423  0.79491661  0.85010939    -0.01400
C650        C  0.99713811  0.75889545  0.81540555    -0.06600
H651        H  0.03957006  0.82271367  0.72011301     0.05900
H652        H  0.98965446  0.78588034  0.88650334     0.09300
Br653      Br  0.94328847  0.79324003  0.67671804    -0.06300
Br654      Br  0.07356542  0.59686114  0.71481464    -0.03200
Br655      Br  0.04951948  0.91327904  0.76821403    -0.00400
Br656      Br  0.97124623  0.69784177  0.83445872    -0.04700
C657        C  0.98857836  0.83660565  0.15726958    -0.12100
C658        C  0.96311569  0.79330427  0.14946588     0.03300
C659        C  0.96129736  0.75838871  0.18569337    -0.12700
C660        C  0.98428899  0.76571217  0.22983254     0.18200
C661        C  0.00951244  0.80863627  0.23776835    -0.09700
C662        C  0.01111486  0.84377670  0.20190561    -0.02700
H663        H  0.94193774  0.72526617  0.17939991     0.04700
C664        C  0.98425488  0.72712403  0.26623839     0.20200
H665        H  0.03113347  0.87642334  0.20858060     0.09900
C666        C  0.01627610  0.68869949  0.26076425    -0.16100
C667        C  0.02005488  0.65313482  0.29606652     0.02900
C668        C  0.99085854  0.65550037  0.33747102    -0.11400
C669        C  0.95852088  0.69379767  0.34264557    -0.01400
C670        C  0.95498380  0.72942737  0.30743081    -0.06600
H671        H  0.03944635  0.68717988  0.22951761     0.05900
H672        H  0.93571967  0.69588891  0.37413485     0.09300
Br673      Br  0.04423383  0.81958788  0.29628994    -0.06300
Br674      Br  0.92822178  0.78011485  0.09141569    -0.03200
Br675      Br  0.06860245  0.60477786  0.28774573    -0.00400
Br676      Br  0.90985853  0.78046572  0.31734460    -0.04700
C677        C  0.99780708  0.33584545  0.34295673    -0.12100
C678        C  0.01603068  0.28910894  0.35201878     0.03300
C679        C  0.01296891  0.25386648  0.31652247    -0.12700
C680        C  0.99263793  0.26405756  0.27173900     0.18200
C681        C  0.97472669  0.31020612  0.26227722    -0.09700
C682        C  0.97723857  0.34558091  0.29771878    -0.02700
H683        H  0.02754709  0.21847242  0.32347644     0.04700
C684        C  0.99323869  0.22686098  0.23428531     0.20200
H685        H  0.96287598  0.38083195  0.28977060     0.09900
C686        C  0.95445129  0.19500738  0.23018453    -0.16100
C687        C  0.95449130  0.15937018  0.19485500     0.02900
C688        C  0.99359259  0.15582582  0.16286335    -0.11400
C689        C  0.03223421  0.18787608  0.16695052    -0.01400
C690        C  0.03254931  0.22285170  0.20280821    -0.06600
H691        H  0.92411809  0.19800338  0.25441002     0.05900
H692        H  0.06257631  0.18514853  0.14268668     0.09300
Br693      Br  0.94747116  0.32642261  0.20102394    -0.06300
Br694      Br  0.04827067  0.27075969  0.41038182    -0.03200
Br695      Br  0.89960540  0.11782408  0.19019914    -0.00400
Br696      Br  0.08755088  0.26404497  0.20836808    -0.04700
loop_ 
_geom_bond_atom_site_label_1 
_geom_bond_atom_site_label_2 
_geom_bond_distance 
_geom_bond_site_symmetry_2 
_ccdc_geom_bond_type 
O1          Zr37   2.438   1_545  S
O1           C12   1.292       .  A
O2          Zr36   2.437       .  S
O2           C13   1.292       .  A
O3           Zr9   2.433   1_455  S
O3           C14   1.290       .  A
O4           Zr9   2.434       .  S
O4           C15   1.291   1_554  A
O5          Zr39   2.436   1_545  S
O5           C15   1.291       .  A
O6          Zr38   2.453       .  S
O6           C14   1.295       .  A
O7           Zr9   2.436   1_556  S
O7           C13   1.292   1_655  A
O8           Zr9   2.436       .  S
O8           C12   1.291       .  A
Zr9          O10   2.340   1_554  S
Zr9          O11   2.340   1_655  S
Zr9          O19   2.338       .  S
Zr9          O17   2.339   1_654  S
O10         Zr36   2.339   1_655  S
O10         Zr39   2.337   1_545  S
O11         Zr37   2.345   1_445  S
O11         Zr38   2.343       .  S
C12         C688   1.468       .  S
C13         C628   1.480       .  S
C14         C517   1.490       .  S
C15         C488   1.472       .  S
H16          O17   0.965       .  S
O17         Zr36   2.341       .  S
O17         Zr38   2.338   1_556  S
H18          O19   0.965       .  S
O19         Zr37   2.340   1_545  S
O19         Zr39   2.341   1_544  S
O20         Zr36   2.442   1_565  S
O20          C43   1.291       .  A
O21         Zr37   2.443       .  S
O21          C44   1.293       .  A
O22         Zr38   2.447   1_556  S
O22          C45   1.293       .  A
O23         Zr39   2.436       .  S
O23          C46   1.292   1_565  A
O24         Zr39   2.439   1_554  S
O24          C47   1.292       .  A
O25         Zr38   2.437   1_565  S
O25          C48   1.292       .  A
O26         Zr40   2.437   1_554  S
O26          C49   1.292       .  A
O27         Zr40   2.442   1_655  S
O27          C50   1.293       .  A
O28         Zr38   2.442   1_565  S
O28          C49   1.293       .  A
O29         Zr39   2.431       .  S
O29          C50   1.291       .  A
O30         Zr36   2.433       .  S
O30          C45   1.291       .  A
O31         Zr37   2.437   1_455  S
O31          C48   1.292       .  A
O32         Zr37   2.441       .  S
O32          C47   1.292       .  A
O33         Zr36   2.432   1_655  S
O33          C46   1.291       .  A
O34         Zr40   2.439       .  S
O34          C43   1.293       .  A
O35         Zr40   2.439   1_654  S
O35          C44   1.292       .  A
Zr36         O42   2.335   1_545  S
Zr36         O54   2.340   1_445  S
Zr37         O41   2.333       .  S
Zr37         O52   2.342   1_655  S
Zr38         O42   2.341   1_544  S
Zr38         O52   2.350   1_545  S
Zr39         O41   2.336   1_556  S
Zr39         O54   2.345       .  S
Zr40         O41   2.336   1_456  S
Zr40         O42   2.338       .  S
Zr40         O54   2.340   1_455  S
Zr40         O52   2.340   1_556  S
C43         C648   1.493       .  S
C44         C657   1.484       .  S
C45         C568   1.471       .  S
C46         C548   1.477       .  S
C47         C608   1.480       .  S
C48         C577   1.475       .  S
C49         C508   1.480       .  S
C50         C468   1.479       .  S
H51          O52   0.965       .  S
H53          O54   0.965       .  S
O55         Zr91   2.447       .  S
O55          C66   1.294       .  A
O56         Zr90   2.439       .  S
O56          C67   1.293       .  A
O57         Zr63   2.445       .  S
O57          C68   1.294       .  A
O58         Zr63   2.444   1_655  S
O58          C69   1.293       .  A
O59         Zr93   2.432       .  S
O59          C69   1.291       .  A
O60         Zr92   2.430       .  S
O60          C68   1.291       .  A
O61         Zr63   2.427       .  S
O61          C67   1.289       .  A
O62         Zr63   2.426       .  S
O62          C66   1.288   1_455  A
Zr63         O64   2.336   1_455  S
Zr63         O65   2.339       .  S
Zr63         O73   2.338   1_455  S
Zr63         O71   2.340       .  S
O64         Zr90   2.337   1_655  S
O64         Zr93   2.340       .  S
O65         Zr91   2.333   1_455  S
O65         Zr92   2.340       .  S
C66         C677   1.487       .  S
C67         C617   1.478       .  S
C68         C337   1.473       .  S
C69         C297   1.475       .  S
H70          O71   0.965       .  S
O71         Zr90   2.335       .  S
O71         Zr92   2.346       .  S
H72          O73   0.965       .  S
O73         Zr91   2.334       .  S
O73         Zr93   2.342       .  S
O74         Zr90   2.431       .  S
O74          C97   1.290       .  A
O75         Zr91   2.430       .  S
O75          C98   1.291       .  A
O76         Zr92   2.429       .  S
O76          C99   1.290       .  A
O77         Zr93   2.438       .  S
O77         C100   1.292       .  A
O78         Zr93   2.442       .  S
O78         C101   1.293       .  A
O79         Zr92   2.436       .  S
O79         C102   1.292       .  A
O80         Zr94   2.434   1_455  S
O80         C103   1.291       .  A
O81         Zr94   2.443       .  S
O81         C104   1.292       .  A
O82         Zr92   2.438       .  S
O82         C103   1.292       .  A
O83         Zr93   2.442       .  S
O83         C104   1.292       .  A
O84         Zr90   2.441       .  S
O84          C99   1.292       .  A
O85         Zr91   2.436   1_455  S
O85         C102   1.291       .  A
O86         Zr91   2.429       .  S
O86         C101   1.290       .  A
O87         Zr90   2.435   1_655  S
O87         C100   1.292       .  A
O88         Zr94   2.446   1_455  S
O88          C97   1.294       .  A
O89         Zr94   2.441       .  S
O89          C98   1.293       .  A
Zr90         O96   2.338       .  S
Zr90        O108   2.346   1_455  S
Zr91         O95   2.343       .  S
Zr91        O106   2.342   1_655  S
Zr92         O96   2.336       .  S
Zr92        O106   2.335       .  S
Zr93         O95   2.334       .  S
Zr93        O108   2.342       .  S
Zr94         O95   2.337       .  S
Zr94         O96   2.337   1_655  S
Zr94        O108   2.341       .  S
Zr94        O106   2.348   1_655  S
C97         C637   1.483       .  S
C98         C668   1.474       .  S
C99         C417   1.465       .  S
C100        C437   1.481       .  S
C101        C377   1.481       .  S
C102        C397   1.477       .  S
C103        C368   1.478       .  S
C104        C317   1.472       .  S
H105        O106   0.965       .  S
H107        O108   0.966       .  S
O109       Zr145   2.431   1_545  S
O109        C120   1.290   1_545  A
O110       Zr144   2.436       .  S
O110        C121   1.292       .  A
O111       Zr117   2.428   1_565  S
O111        C122   1.289       .  A
O112       Zr117   2.427       .  S
O112        C123   1.289       .  A
O113       Zr147   2.447       .  S
O113        C123   1.294       .  A
O114       Zr146   2.447       .  S
O114        C122   1.294       .  A
O115       Zr117   2.437       .  S
O115        C121   1.292       .  A
O116       Zr117   2.437   1_565  S
O116        C120   1.291       .  A
Zr117       O118   2.336       .  S
Zr117       O119   2.338   1_545  S
Zr117       O127   2.338       .  S
Zr117       O125   2.334   1_545  S
O118       Zr144   2.342       .  S
O118       Zr147   2.340       .  S
O119       Zr145   2.337       .  S
O119       Zr146   2.337       .  S
C120        C597   1.464       .  S
C121        C588   1.475       .  S
C122        C237   1.483       .  S
C123        C228   1.482       .  S
H124        O125   0.965       .  S
O125       Zr144   2.339   1_565  S
O125       Zr146   2.339       .  S
H126        O127   0.965       .  S
O127       Zr145   2.340   1_545  S
O127       Zr147   2.338       .  S
O128       Zr144   2.442       .  S
O128        C151   1.293       .  A
O129       Zr145   2.431       .  S
O129        C152   1.290       .  A
O130       Zr146   2.424       .  S
O130        C153   1.288       .  A
O131       Zr147   2.430       .  S
O131        C154   1.291       .  A
O132       Zr147   2.433       .  S
O132        C155   1.292       .  A
O133       Zr146   2.440       .  S
O133        C156   1.293       .  A
O134       Zr148   2.434   1_565  S
O134        C157   1.291       .  A
O135       Zr148   2.442       .  S
O135        C158   1.293       .  A
O136       Zr146   2.442       .  S
O136        C157   1.293       .  A
O137       Zr147   2.446       .  S
O137        C158   1.293       .  A
O138       Zr144   2.453   1_565  S
O138        C153   1.296       .  A
O139       Zr145   2.441       .  S
O139        C156   1.292       .  A
O140       Zr145   2.433   1_545  S
O140        C155   1.291       .  A
O141       Zr144   2.443       .  S
O141        C154   1.293       .  A
O142       Zr148   2.438       .  S
O142        C151   1.292       .  A
O143       Zr148   2.439       .  S
O143        C152   1.293   1_545  A
Zr144       O150   2.343   1_545  S
Zr144       O162   2.346       .  S
Zr145       O149   2.339   1_565  S
Zr145       O160   2.338       .  S
Zr146       O150   2.347       .  S
Zr146       O160   2.339       .  S
Zr147       O149   2.336       .  S
Zr147       O162   2.342       .  S
Zr148       O149   2.336       .  S
Zr148       O150   2.344   1_545  S
Zr148       O162   2.340       .  S
Zr148       O160   2.344   1_545  S
C151        C557   1.480       .  S
C152        C537   1.478       .  S
C153        C357   1.486       .  S
C154        C348   1.472       .  S
C155        C308   1.476       .  S
C156        C328   1.480       .  S
C157        C257   1.475       .  S
C158        C288   1.481       .  S
H159        O160   0.965       .  S
H161        O162   0.965       .  S
O163       Zr199   2.440       .  S
O163        C174   1.292       .  A
O164       Zr198   2.438   1_556  S
O164        C175   1.292       .  A
O165       Zr171   2.431   1_554  S
O165        C176   1.290       .  A
O166       Zr171   2.427       .  S
O166        C177   1.288       .  A
O167       Zr201   2.439       .  S
O167        C177   1.293       .  A
O168       Zr200   2.438       .  S
O168        C176   1.293       .  A
O169       Zr171   2.436       .  S
O169        C175   1.291       .  A
O170       Zr171   2.436       .  S
O170        C174   1.291       .  A
Zr171       O172   2.336       .  S
Zr171       O173   2.334   1_556  S
Zr171       O181   2.341       .  S
Zr171       O179   2.337   1_556  S
O172       Zr198   2.337   1_556  S
O172       Zr201   2.339       .  S
O173       Zr199   2.338   1_554  S
O173       Zr200   2.338       .  S
C174        C528   1.472       .  S
C175        C497   1.472       .  S
C176        C408   1.476       .  S
C177        C428   1.490       .  S
H178        O179   0.966       .  S
O179       Zr198   2.336       .  S
O179       Zr200   2.339       .  S
H180        O181   0.965       .  S
O181       Zr199   2.339       .  S
O181       Zr201   2.344       .  S
O182       Zr198   2.429       .  S
O182        C205   1.291       .  A
O183       Zr199   2.439   1_554  S
O183        C206   1.292       .  A
O184       Zr200   2.440       .  S
O184        C207   1.292       .  A
O185       Zr201   2.443       .  S
O185        C208   1.293       .  A
O186       Zr201   2.435       .  S
O186        C209   1.291       .  A
O187       Zr200   2.436       .  S
O187        C210   1.292       .  A
O188       Zr202   2.437       .  S
O188        C211   1.291       .  A
O189       Zr202   2.434   1_556  S
O189        C212   1.291       .  A
O190       Zr200   2.437       .  S
O190        C211   1.291       .  A
O191       Zr201   2.444       .  S
O191        C212   1.293       .  A
O192       Zr198   2.442       .  S
O192        C207   1.293       .  A
O193       Zr199   2.438   1_554  S
O193        C210   1.292       .  A
O194       Zr199   2.446       .  S
O194        C209   1.294       .  A
O195       Zr198   2.433   1_556  S
O195        C208   1.291       .  A
O196       Zr202   2.435       .  S
O196        C205   1.291       .  A
O197       Zr202   2.441       .  S
O197        C206   1.293       .  A
Zr198       O204   2.340       .  S
Zr198       O216   2.347   1_554  S
Zr199       O203   2.338       .  S
Zr199       O214   2.344   1_556  S
Zr200       O204   2.338       .  S
Zr200       O214   2.342       .  S
Zr201       O203   2.340       .  S
Zr201       O216   2.342       .  S
Zr202       O203   2.338   1_554  S
Zr202       O204   2.341       .  S
Zr202       O216   2.345   1_554  S
Zr202       O214   2.339       .  S
C205        C457   1.473       .  S
C206        C477   1.479       .  S
C207        C248   1.485       .  S
C208        C268   1.476       .  S
C209        C277   1.476       .  S
C210        C217   1.474       .  S
C211        C388   1.465       .  S
C212        C448   1.474       .  S
H213        O214   0.965       .  S
H215        O216   0.965       .  S
C217        C218   1.412       .  A
C217        C222   1.404       .  A
C218        C219   1.400       .  A
C218       Br234   1.920       .  S
C219        C220   1.401       .  A
C219        H223   1.084       .  S
C220        C224   1.474       .  S
C220        C221   1.406       .  A
C221        C222   1.396       .  A
C221       Br233   1.918       .  S
C222        H225   1.084       .  S
C224        C226   1.399       .  A
C224        C230   1.406       .  A
C226        C227   1.398       .  A
C226        H231   1.084       .  S
C227        C228   1.417       .  A
C227       Br235   1.923       .  S
C228        C229   1.407       .  A
C229        C230   1.398       .  A
C229        H232   1.083       .  S
C230       Br236   1.919       .  S
C237        C238   1.416       .  A
C237        C242   1.406       .  A
C238        C239   1.398       .  A
C238       Br254   1.920       .  S
C239        C240   1.401       .  A
C239        H243   1.084       .  S
C240        C244   1.481       .  S
C240        C241   1.408       .  A
C241        C242   1.399       .  A
C241       Br253   1.919       .  S
C242        H245   1.084       .  S
C244        C246   1.401       .  A
C244        C250   1.408       .  A
C246        C247   1.399       .  A
C246        H251   1.084       .  S
C247        C248   1.415       .  A
C247       Br255   1.920       .  S
C248        C249   1.408       .  A
C249        C250   1.399       .  A
C249        H252   1.084       .  S
C250       Br256   1.920       .  S
C257        C258   1.411       .  A
C257        C262   1.403       .  A
C258        C259   1.398       .  A
C258       Br274   1.920       .  S
C259        C260   1.400       .  A
C259        H263   1.084       .  S
C260        C264   1.472       .  S
C260        C261   1.406       .  A
C261        C262   1.397       .  A
C261       Br273   1.920       .  S
C262        H265   1.079       .  S
C264        C266   1.400       .  A
C264        C270   1.405       .  A
C266        C267   1.399       .  A
C266        H271   1.084       .  S
C267        C268   1.414       .  A
C267       Br275   1.921       .  S
C268        C269   1.405       .  A
C269        C270   1.398       .  A
C269        H272   1.084       .  S
C270       Br276   1.919       .  S
C277        C278   1.412       .  A
C277        C282   1.404       .  A
C278        C279   1.401       .  A
C278       Br294   1.921       .  S
C279        C280   1.403       .  A
C279        H283   1.084       .  S
C280        C284   1.479       .  S
C280        C281   1.407       .  A
C281        C282   1.399       .  A
C281       Br293   1.917       .  S
C282        H285   1.084       .  S
C284        C286   1.402       .  A
C284        C290   1.407       .  A
C286        C287   1.402       .  A
C286        H291   1.083       .  S
C287        C288   1.413       .  A
C287       Br295   1.920       .  S
C288        C289   1.405       .  A
C289        C290   1.400       .  A
C289        H292   1.084       .  S
C290       Br296   1.919       .  S
C297        C298   1.412       .  A
C297        C302   1.405       .  A
C298        C299   1.398       .  A
C298       Br314   1.919       .  S
C299        C300   1.400       .  A
C299        H303   1.084       .  S
C300        C304   1.472       .  S
C300        C301   1.406       .  A
C301        C302   1.398       .  A
C301       Br313   1.919       .  S
C302        H305   1.084       .  S
C304        C306   1.400       .  A
C304        C310   1.405       .  A
C306        C307   1.398       .  A
C306        H311   1.084       .  S
C307        C308   1.414       .  A
C307       Br315   1.922       .  S
C308        C309   1.405       .  A
C309        C310   1.396       .  A
C309        H312   1.084       .  S
C310       Br316   1.918       .  S
C317        C318   1.407       .  A
C317        C322   1.402       .  A
C318        C319   1.400       .  A
C318       Br334   1.916       .  S
C319        C320   1.405       .  A
C319        H323   1.083       .  S
C320        C324   1.485       .  S
C320        C321   1.412       .  A
C321        C322   1.401       .  A
C321       Br333   1.919       .  S
C322        H325   1.084       .  S
C324        C326   1.404       .  A
C324        C330   1.410       .  A
C326        C327   1.401       .  A
C326        H331   1.084       .  S
C327        C328   1.412       .  A
C327       Br335   1.920       .  S
C328        C329   1.404       .  A
C329        C330   1.399       .  A
C329        H332   1.084       .  S
C330       Br336   1.919       .  S
C337        C338   1.411       .  A
C337        C342   1.405       .  A
C338        C339   1.398       .  A
C338       Br354   1.921       .  S
C339        C340   1.400       .  A
C339        H343   1.084       .  S
C340        C344   1.471       .  S
C340        C341   1.406       .  A
C341        C342   1.398       .  A
C341       Br353   1.920       .  S
C342        H345   1.084       .  S
C344        C346   1.401       .  A
C344        C350   1.406       .  A
C346        C347   1.397       .  A
C346        H351   1.084       .  S
C347        C348   1.411       .  A
C347       Br355   1.919       .  S
C348        C349   1.405       .  A
C349        C350   1.397       .  A
C349        H352   1.084       .  S
C350       Br356   1.918       .  S
C357        C358   1.419       .  A
C357        C362   1.408       .  A
C358        C359   1.396       .  A
C358       Br374   1.920       .  S
C359        C360   1.398       .  A
C359        H363   1.084       .  S
C360        C364   1.477       .  S
C360        C361   1.407       .  A
C361        C362   1.399       .  A
C361       Br373   1.918       .  S
C362        H365   1.083       .  S
C364        C366   1.401       .  A
C364        C370   1.408       .  A
C366        C367   1.398       .  A
C366        H371   1.084       .  S
C367        C368   1.413       .  A
C367       Br375   1.921       .  S
C368        C369   1.405       .  A
C369        C370   1.398       .  A
C369        H372   1.084       .  S
C370       Br376   1.920       .  S
C377        C378   1.416       .  A
C377        C382   1.407       .  A
C378        C379   1.396       .  A
C378       Br394   1.923       .  S
C379        C380   1.400       .  A
C379        H383   1.084       .  S
C380        C384   1.475       .  S
C380        C381   1.406       .  A
C381        C382   1.399       .  A
C381       Br393   1.919       .  S
C382        H385   1.083       .  S
C384        C386   1.403       .  A
C384        C390   1.408       .  A
C386        C387   1.399       .  A
C386        H391   1.083       .  S
C387        C388   1.406       .  A
C387       Br395   1.919       .  S
C388        C389   1.401       .  A
C389        C390   1.397       .  A
C389        H392   1.083       .  S
C390       Br396   1.920       .  S
C397        C398   1.414       .  A
C397        C402   1.405       .  A
C398        C399   1.400       .  A
C398       Br414   1.921       .  S
C399        C400   1.401       .  A
C399        H403   1.084       .  S
C400        C404   1.473       .  S
C400        C401   1.405       .  A
C401        C402   1.397       .  A
C401       Br413   1.919       .  S
C402        H405   1.084       .  S
C404        C406   1.401       .  A
C404        C410   1.406       .  A
C406        C407   1.399       .  A
C406        H411   1.084       .  S
C407        C408   1.414       .  A
C407       Br415   1.922       .  S
C408        C409   1.405       .  A
C409        C410   1.397       .  A
C409        H412   1.084       .  S
C410       Br416   1.918       .  S
C417        C418   1.407       .  A
C417        C422   1.400       .  A
C418        C419   1.398       .  A
C418       Br434   1.919       .  S
C419        C420   1.404       .  A
C419        H423   1.083       .  S
C420        C424   1.479       .  S
C420        C421   1.412       .  A
C421        C422   1.396       .  A
C421       Br433   1.922       .  S
C422        H425   1.084       .  S
C424        C426   1.399       .  A
C424        C430   1.407       .  A
C426        C427   1.395       .  A
C426        H431   1.084       .  S
C427        C428   1.421       .  A
C427       Br435   1.925       .  S
C428        C429   1.410       .  A
C429        C430   1.398       .  A
C429        H432   1.083       .  S
C430       Br436   1.920       .  S
C437        C438   1.415       .  A
C437        C442   1.408       .  A
C438        C439   1.396       .  A
C438       Br454   1.922       .  S
C439        C440   1.399       .  A
C439        H443   1.084       .  S
C440        C444   1.473       .  S
C440        C441   1.406       .  A
C441        C442   1.400       .  A
C441       Br453   1.920       .  S
C442        H445   1.083       .  S
C444        C446   1.401       .  A
C444        C450   1.406       .  A
C446        C447   1.398       .  A
C446        H451   1.084       .  S
C447        C448   1.411       .  A
C447       Br455   1.919       .  S
C448        C449   1.405       .  A
C449        C450   1.398       .  A
C449        H452   1.084       .  S
C450       Br456   1.919       .  S
C457        C458   1.412       .  A
C457        C462   1.405   1_554  A
C458        C459   1.398       .  A
C458       Br474   1.921       .  S
C459        C460   1.400       .  A
C459        H463   1.084       .  S
C460        C464   1.469       .  S
C460        C461   1.405   1_554  A
C461        C462   1.395       .  A
C461       Br473   1.919       .  S
C462        H465   1.084       .  S
C464        C466   1.397   1_554  A
C464        C470   1.404       .  A
C466        C467   1.396       .  A
C466        H471   1.084       .  S
C467        C468   1.413       .  A
C467       Br475   1.911       .  S
C468        C469   1.407   1_556  A
C469        C470   1.398       .  A
C469        H472   1.084       .  S
C470       Br476   1.919       .  S
C477        C478   1.414       .  A
C477        C482   1.406   1_554  A
C478        C479   1.399       .  A
C478       Br494   1.921       .  S
C479        C480   1.400       .  A
C479        H483   1.084       .  S
C480        C484   1.473       .  S
C480        C481   1.405   1_554  A
C481        C482   1.398       .  A
C481       Br493   1.919       .  S
C482        H485   1.084       .  S
C484        C486   1.402   1_554  A
C484        C490   1.406       .  A
C486        C487   1.400       .  A
C486        H491   1.084       .  S
C487        C488   1.411       .  A
C487       Br495   1.921       .  S
C488        C489   1.404   1_556  A
C489        C490   1.396       .  A
C489        H492   1.084       .  S
C490       Br496   1.918       .  S
C497        C498   1.410       .  A
C497        C502   1.403   1_556  A
C498        C499   1.400       .  A
C498       Br514   1.920       .  S
C499        C500   1.402       .  A
C499        H503   1.083       .  S
C500        C504   1.475   1_556  S
C500        C501   1.406   1_556  A
C501        C502   1.398       .  A
C501       Br513   1.917       .  S
C502        H505   1.084       .  S
C504        C506   1.400       .  A
C504        C510   1.406   1_554  A
C506        C507   1.399       .  A
C506        H511   1.084       .  S
C507        C508   1.414       .  A
C507       Br515   1.922       .  S
C508        C509   1.407   1_554  A
C509        C510   1.400       .  A
C509        H512   1.083       .  S
C510       Br516   1.919       .  S
C517        C518   1.421   1_554  A
C517        C522   1.408       .  A
C518        C519   1.400       .  A
C518       Br534   1.924       .  S
C519        C520   1.399   1_556  A
C519        H523   1.084       .  S
C520        C524   1.477       .  S
C520        C521   1.404       .  A
C521        C522   1.400       .  A
C521       Br533   1.918       .  S
C522        H525   1.083       .  S
C524        C526   1.401       .  A
C524        C530   1.408   1_554  A
C526        C527   1.399       .  A
C526        H531   1.083       .  S
C527        C528   1.410   1_554  A
C527       Br535   1.919       .  S
C528        C529   1.402       .  A
C529        C530   1.399       .  A
C529        H532   1.084       .  S
C530       Br536   1.918       .  S
C537        C538   1.415       .  A
C537        C542   1.405   1_565  A
C538        C539   1.399       .  A
C538       Br554   1.922       .  S
C539        C540   1.400   1_565  A
C539        H543   1.084       .  S
C540        C544   1.474       .  S
C540        C541   1.405       .  A
C541        C542   1.397       .  A
C541       Br553   1.919       .  S
C542        H545   1.084       .  S
C544        C546   1.401       .  A
C544        C550   1.406   1_545  A
C546        C547   1.399       .  A
C546        H551   1.084       .  S
C547        C548   1.414       .  A
C547       Br555   1.923       .  S
C548        C549   1.405   1_545  A
C549        C550   1.396       .  A
C549        H552   1.084       .  S
C550       Br556   1.919       .  S
C557        C558   1.414   1_545  A
C557        C562   1.407       .  A
C558        C559   1.399       .  A
C558       Br574   1.922       .  S
C559        C560   1.401   1_565  A
C559        H563   1.084       .  S
C560        C564   1.475       .  S
C560        C561   1.406       .  A
C561        C562   1.399       .  A
C561       Br573   1.919       .  S
C562        H565   1.084       .  S
C564        C566   1.403       .  A
C564        C570   1.407   1_545  A
C566        C567   1.401       .  A
C566        H571   1.083       .  S
C567        C568   1.409       .  A
C567       Br575   1.919       .  S
C568        C569   1.402   1_545  A
C569        C570   1.397       .  A
C569        H572   1.082       .  S
C570       Br576   1.920       .  S
C577        C578   1.413       .  A
C577        C582   1.405   1_565  A
C578        C579   1.399       .  A
C578       Br594   1.922       .  S
C579        C580   1.401       .  A
C579        H583   1.084       .  S
C580        C584   1.473       .  S
C580        C581   1.406   1_565  A
C581        C582   1.397       .  A
C581       Br593   1.919       .  S
C582        H585   1.084       .  S
C584        C586   1.401   1_565  A
C584        C590   1.405       .  A
C586        C587   1.398       .  A
C586        H591   1.084       .  S
C587        C588   1.412       .  A
C587       Br595   1.922       .  S
C588        C589   1.406   1_545  A
C589        C590   1.398       .  A
C589        H592   1.084       .  S
C590       Br596   1.918       .  S
C597        C598   1.405   1_565  A
C597        C602   1.398       .  A
C598        C599   1.400       .  A
C598       Br614   1.920       .  S
C599        C600   1.405   1_545  A
C599        H603   1.083       .  S
C600        C604   1.478       .  S
C600        C601   1.410       .  A
C601        C602   1.396       .  A
C601       Br613   1.919       .  S
C602        H605   1.082       .  S
C604        C606   1.401       .  A
C604        C610   1.408   1_565  A
C606        C607   1.397       .  A
C606        H611   1.084       .  S
C607        C608   1.413       .  A
C607       Br615   1.920       .  S
C608        C609   1.407   1_565  A
C609        C610   1.400       .  A
C609        H612   1.084       .  S
C610       Br616   1.920       .  S
C617        C618   1.416   1_455  A
C617        C622   1.406       .  A
C618        C619   1.398       .  A
C618       Br634   1.923       .  S
C619        C620   1.400   1_655  A
C619        H623   1.084       .  S
C620        C624   1.474       .  S
C620        C621   1.405       .  A
C621        C622   1.397       .  A
C621       Br633   1.919       .  S
C622        H625   1.084       .  S
C624        C626   1.399       .  A
C624        C630   1.407   1_455  A
C626        C627   1.396       .  A
C626        H631   1.084       .  S
C627        C628   1.414       .  A
C627       Br635   1.922       .  S
C628        C629   1.408   1_455  A
C629        C630   1.400       .  A
C629        H632   1.083       .  S
C630       Br636   1.921       .  S
C637        C638   1.416       .  A
C637        C642   1.405   1_455  A
C638        C639   1.398       .  A
C638       Br654   1.922       .  S
C639        C640   1.402       .  A
C639        H643   1.084       .  S
C640        C644   1.483       .  S
C640        C641   1.409   1_455  A
C641        C642   1.398       .  A
C641       Br653   1.921       .  S
C642        H645   1.082       .  S
C644        C646   1.402       .  A
C644        C650   1.407   1_455  A
C646        C647   1.399       .  A
C646        H651   1.084       .  S
C647        C648   1.419       .  A
C647       Br655   1.920       .  S
C648        C649   1.408   1_455  A
C649        C650   1.397       .  A
C649        H652   1.079       .  S
C650       Br656   1.922       .  S
C657        C658   1.417       .  A
C657        C662   1.406   1_655  A
C658        C659   1.401       .  A
C658       Br674   1.921       .  S
C659        C660   1.401       .  A
C659        H663   1.084       .  S
C660        C664   1.476       .  S
C660        C661   1.405   1_655  A
C661        C662   1.398       .  A
C661       Br673   1.919       .  S
C662        H665   1.083       .  S
C664        C666   1.401   1_655  A
C664        C670   1.408       .  A
C666        C667   1.398       .  A
C666        H671   1.084       .  S
C667        C668   1.412   1_455  A
C667       Br675   1.922       .  S
C668        C669   1.403       .  A
C669        C670   1.398       .  A
C669        H672   1.084       .  S
C670       Br676   1.917       .  S
C677        C678   1.420   1_655  A
C677        C682   1.409       .  A
C678        C679   1.398       .  A
C678       Br694   1.924       .  S
C679        C680   1.397   1_455  A
C679        H683   1.084       .  S
C680        C684   1.473       .  S
C680        C681   1.404       .  A
C681        C682   1.399       .  A
C681       Br693   1.919       .  S
C682        H685   1.083       .  S
C684        C686   1.402       .  A
C684        C690   1.406   1_655  A
C686        C687   1.400       .  A
C686        H691   1.083       .  S
C687        C688   1.409       .  A
C687       Br695   1.921       .  S
C688        C689   1.402   1_655  A
C689        C690   1.397       .  A
C689        H692   1.084       .  S
C690       Br696   1.919       .  S
