geometry optimzed in LAMMPS
_audit_creation_date              2020-11-30 
_audit_creation_method            'lammps2cif' 
_symmetry_space_group_name_H-M    'P1' 
_symmetry_Int_Tables_number       1 
_symmetry_cell_setting            triclinic 
loop_ 
_symmetry_equiv_pos_as_xyz 
  x,y,z 
_cell_length_a                    39.56147424 
_cell_length_b                    39.61173290302575 
_cell_length_c                    39.73838937357675 
_cell_angle_alpha                 89.80389215344903 
_cell_angle_beta                  89.54898936753105 
_cell_angle_gamma                 89.96898634415618 
loop_ 
_atom_site_label 
_atom_site_type_symbol 
_atom_site_fract_x 
_atom_site_fract_y 
_atom_site_fract_z 
_atom_site_charge 
N1          N  0.00160930  0.24967208  0.30269290    -0.36300
N2          N  0.00443471  0.30045870  0.25054176    -0.56900
N3          N  0.00615934  0.24779278  0.19966898    -0.36300
N4          N  0.99946976  0.19686770  0.25190130    -0.56900
C5          C  0.99462275  0.27783438  0.32063952     0.27300
C6          C  0.99107263  0.22284819  0.32114546     0.27300
C7          C  0.99841142  0.27523309  0.18087419     0.27200
C8          C  0.99726437  0.22020468  0.18181320     0.27200
C9          C  0.01192191  0.31977873  0.27744686     0.35900
C10         C  0.01257493  0.31885908  0.22297206     0.35900
C11         C  0.00597212  0.17858133  0.27982879     0.35900
C12         C  0.00935927  0.17770445  0.22554962     0.35900
C13         C  0.97929328  0.26879510  0.35087729    -0.21600
C14         C  0.97700400  0.23407828  0.35117144    -0.21600
C15         C  0.98446510  0.26499587  0.15068023    -0.21600
C16         C  0.98361682  0.23023727  0.15132048    -0.21600
C17         C  0.02531193  0.35041059  0.26687448    -0.22700
C18         C  0.02546972  0.34992149  0.23232029    -0.22700
C19         C  0.02034046  0.14782925  0.27123586    -0.22700
C20         C  0.02260670  0.14733099  0.23675680    -0.22700
C21         C  0.00378323  0.31115101  0.31112724    -0.18000
C22         C  0.99700333  0.18861968  0.31273260    -0.18000
C23         C  0.00354058  0.18638730  0.19163930    -0.18000
C24         C  0.00553650  0.30906489  0.18964288    -0.18000
H25         H  0.97093489  0.28542081  0.37083443     0.14900
H26         H  0.96674654  0.21883597  0.37146692     0.14900
H27         H  0.97594958  0.28089859  0.13023100     0.14900
H28         H  0.97423078  0.21421690  0.13147015     0.14900
H29         H  0.03344998  0.37123437  0.28238457     0.13200
H30         H  0.03373686  0.37024094  0.21594627     0.13200
H31         H  0.02827319  0.12782115  0.28802746     0.13200
H32         H  0.03247251  0.12682300  0.22166643     0.13200
H33         H  0.01653370  0.24855205  0.28105565     0.26400
H34         H  0.02020196  0.24775746  0.22171864     0.26400
O35         O  0.00320844  0.09438326  0.05676127    -0.86200
O36         O  0.00365629  0.40412025  0.05707039    -0.86400
O37         O  0.44610252  0.00015444  0.09726361    -0.88100
O38         O  0.05629379  0.99756665  0.09501482    -0.86800
O39         O  0.09830783  0.50031357  0.05454116    -0.86400
O40         O  0.40600720  0.50273028  0.05636312    -0.87800
O41         O  0.00031790  0.44497848  0.09783861    -0.86200
O42         O  0.00046852  0.05295338  0.09723889    -0.85800
Zr43       Zr  0.00209105  0.49956795  0.06905970     2.84300
O44         O  0.03688109  0.46556752  0.03529947    -1.07800
O45         O  0.46729401  0.03392804  0.03529610    -1.08500
C46         C  0.00195327  0.08409939  0.08769259     1.06900
C47         C  0.00195416  0.41393813  0.08802412     1.06800
C48         C  0.41495925  0.00262311  0.08795083     1.09800
C49         C  0.08728322  0.99851169  0.08452196     1.07600
H50         H  0.45362560  0.45154585  0.04962155     0.33200
O51         O  0.46781762  0.46553090  0.03545328    -1.28800
H52         H  0.05034264  0.04648685  0.04823573     0.32800
O53         O  0.03584587  0.03279496  0.03451729    -1.30400
O54         O  0.00312640  0.40400946  0.44577833    -0.86200
O55         O  0.99907917  0.09518696  0.44618562    -0.87700
O56         O  0.40599059  0.44481176  0.49955265    -0.86300
O57         O  0.09839181  0.44587232  0.49341044    -0.86300
O58         O  0.09543805  0.05648929  0.49627774    -0.86000
O59         O  0.40366330  0.05386791  0.50198058    -0.85900
O60         O  0.44474963  0.49753159  0.40602894    -0.86200
O61         O  0.05406551  0.49702856  0.40311297    -0.85700
O62         O  0.40423041  0.50074308  0.44753806    -0.86800
O63         O  0.09562000  0.49968863  0.44304673    -0.85900
O64         O  0.44728829  0.40391878  0.50038908    -0.86300
O65         O  0.44404235  0.09535024  0.50518364    -0.86000
O66         O  0.05400316  0.09697934  0.49768112    -0.85700
O67         O  0.05761426  0.40469815  0.49677509    -0.86100
O68         O  0.99976528  0.44503970  0.40498475    -0.86400
O69         O  0.99803591  0.05402047  0.40551005    -0.87700
Zr70       Zr  0.00212431  0.43170935  0.50082070     2.83100
Zr71       Zr  0.99955174  0.06840534  0.50124841     2.83500
Zr72       Zr  0.43319845  0.49997940  0.50175054     2.84100
Zr73       Zr  0.06976135  0.50019743  0.49871719     2.83400
Zr74       Zr  0.99997938  0.49974582  0.43276938     2.81300
O75         O  0.03319635  0.03419630  0.46649473    -1.08300
O76         O  0.46682167  0.46542195  0.46755896    -1.07800
C77         C  0.00187860  0.41398280  0.41475769     1.06900
C78         C  0.99838530  0.08511593  0.41532794     1.09500
C79         C  0.41619027  0.41381051  0.49937964     1.07000
C80         C  0.08856516  0.41476700  0.49336154     1.07400
C81         C  0.08522305  0.08753036  0.49591358     1.07000
C82         C  0.41307636  0.08495227  0.50416641     1.06500
C83         C  0.41375123  0.49890766  0.41638345     1.07000
C84         C  0.08527306  0.49760003  0.41239193     1.06500
H85         H  0.45121201  0.04787246  0.45326037     0.33100
O86         O  0.46560392  0.03404086  0.46715812    -1.29400
H87         H  0.04862917  0.45222981  0.45138525     0.33200
O88         O  0.03494008  0.46618278  0.46595543    -1.30800
N89         N  0.24817056  0.00558630  0.30230584    -0.36300
N90         N  0.19709899  0.00685065  0.24947338    -0.56900
N91         N  0.24977945  0.00984897  0.19929056    -0.36300
N92         N  0.30078854  0.00536227  0.25225650    -0.56900
C93         C  0.21992356  0.99613817  0.31917101     0.27300
C94         C  0.27496001  0.99522453  0.32073617     0.27300
C95         C  0.22281884  0.00131758  0.18026782     0.27200
C96         C  0.27791731  0.00130582  0.18171734     0.27200
C97         C  0.17729918  0.01259010  0.27664409     0.35900
C98         C  0.17812745  0.01384503  0.22221107     0.35900
C99         C  0.31942224  0.01129362  0.28001602     0.35900
C100        C  0.32022901  0.01417000  0.22556417     0.35900
C101        C  0.22876697  0.97947125  0.34857151    -0.21600
C102        C  0.26354147  0.97875866  0.34948134    -0.21600
C103        C  0.23400135  0.98724932  0.15028610    -0.21600
C104        C  0.26874241  0.98722140  0.15120472    -0.21600
C105        C  0.14563997  0.02366714  0.26668369    -0.22700
C106        C  0.14618525  0.02451406  0.23209874    -0.22700
C107        C  0.35067379  0.02436813  0.27094680    -0.22700
C108        C  0.35117168  0.02623460  0.23640874    -0.22700
C109        C  0.18651464  0.00449023  0.30992402    -0.18000
C110        C  0.30924608  0.00234288  0.31304524    -0.18000
C111        C  0.31156630  0.00793074  0.19170513    -0.18000
C112        C  0.18848873  0.00724578  0.18878621    -0.18000
H113        H  0.21188483  0.96913648  0.36753445     0.14900
H114        H  0.27866628  0.96771621  0.36924506     0.14900
H115        H  0.21875955  0.97787754  0.12984859     0.14900
H116        H  0.28533774  0.97788286  0.13156040     0.14900
H117        H  0.12415344  0.02965802  0.28260615     0.13200
H118        H  0.12524281  0.03137746  0.21609730     0.13200
H119        H  0.37112147  0.03144231  0.28741306     0.13200
H120        H  0.37217033  0.03484066  0.22102205     0.13200
H121        H  0.24894497  0.02171546  0.28156315     0.26400
H122        H  0.24922548  0.02393655  0.22136008     0.26400
N123        N  0.25299128  0.30197525  0.48622484    -0.36300
N124        N  0.20044269  0.25122933  0.48568269    -0.56900
N125        N  0.25049710  0.19927178  0.49386547    -0.36300
N126        N  0.30321574  0.24979371  0.49695199    -0.56900
C127        C  0.22505147  0.32077958  0.49223452     0.27300
C128        C  0.27980094  0.31984680  0.49717873     0.27300
C129        C  0.22170333  0.18238655  0.50141680     0.27200
C130        C  0.27638952  0.18156030  0.50717966     0.27200
C131        C  0.18312299  0.27842438  0.47471980     0.35900
C132        C  0.18174721  0.22388187  0.47791061     0.35900
C133        C  0.32341976  0.27610589  0.48889645     0.35900
C134        C  0.32210595  0.22166624  0.49309973     0.35900
C135        C  0.23419229  0.35086300  0.50741929    -0.21600
C136        C  0.26883391  0.35028228  0.51051378    -0.21600
C137        C  0.22937666  0.15390984  0.52032194    -0.21600
C138        C  0.26399106  0.15325371  0.52372032    -0.21600
C139        C  0.15344505  0.26840285  0.45942998    -0.22700
C140        C  0.15266321  0.23372253  0.46125310    -0.22700
C141        C  0.35527172  0.26468852  0.47961824    -0.22700
C142        C  0.35442244  0.23008149  0.48222135    -0.22700
C143        C  0.19192703  0.31197043  0.48250368    -0.18000
C144        C  0.31393778  0.31020790  0.49291037    -0.18000
C145        C  0.31094510  0.18895991  0.50194801    -0.18000
C146        C  0.18927727  0.19082423  0.48910245    -0.18000
H147        H  0.21770114  0.37124751  0.51518906     0.14900
H148        H  0.28422464  0.37012600  0.52107444     0.14900
H149        H  0.21195118  0.13516119  0.53006295     0.14900
H150        H  0.27843598  0.13391808  0.53647577     0.14900
H151        H  0.13404857  0.28446274  0.44888967     0.13200
H152        H  0.13256449  0.21771667  0.45218424     0.13200
H153        H  0.37693430  0.27970484  0.47217020     0.13200
H154        H  0.37530897  0.21315504  0.47711708     0.13200
H155        H  0.25413993  0.27995661  0.47199155     0.26400
H156        H  0.25280438  0.21921828  0.47685411     0.26400
C157        C  0.36382625  0.39012194  0.47450044    -0.21000
C158        C  0.39015805  0.38742689  0.49780005    -0.09100
C159        C  0.39133477  0.36004417  0.02105844     0.29800
C160        C  0.36589612  0.33574949  0.01954002    -0.21000
C161        C  0.34054792  0.33668911  0.49409102    -0.09100
C162        C  0.33931271  0.36484364  0.47242893     0.29800
F163        F  0.31441477  0.36781295  0.44928137    -0.19600
H164        H  0.36255252  0.41159204  0.45758403     0.18200
H165        H  0.36629495  0.31466018  0.03696253     0.18200
F166        F  0.41590316  0.35698018  0.04455066    -0.19600
C167        C  0.39220323  0.14097848  0.02303244    -0.21000
C168        C  0.38611721  0.11061242  0.50513180    -0.09100
C169        C  0.35755116  0.10740469  0.48454008     0.29800
C170        C  0.33300999  0.13271562  0.48409783    -0.21000
C171        C  0.33607249  0.16119041  0.50474329    -0.09100
C172        C  0.36717444  0.16578813  0.02203268     0.29800
F173        F  0.36730721  0.19085139  0.04523842    -0.19600
H174        H  0.41149504  0.14211678  0.04219892     0.18200
H175        H  0.31185026  0.13045117  0.46711077     0.18200
F176        F  0.35403957  0.08049031  0.46381572    -0.19600
C177        C  0.16675677  0.36725181  0.46383370    -0.21000
C178        C  0.16478468  0.33798278  0.48382888    -0.09100
C179        C  0.13827314  0.33402545  0.01638673     0.29800
C180        C  0.11383455  0.35948900  0.01843940    -0.21000
C181        C  0.11470378  0.38843582  0.48927267    -0.09100
C182        C  0.14188505  0.39235528  0.46643760     0.29800
F183        F  0.14393085  0.41993120  0.44611496    -0.19600
H184        H  0.18762180  0.37061721  0.44632325     0.18200
H185        H  0.09406586  0.35761616  0.03737523     0.18200
F186        F  0.13698173  0.30783346  0.03847555    -0.19600
C187        C  0.14254660  0.10764636  0.47755946    -0.21000
C188        C  0.11133230  0.11436092  0.49332934    -0.09100
C189        C  0.11300199  0.13976409  0.01395794     0.29800
C190        C  0.13808844  0.16451988  0.01231063    -0.21000
C191        C  0.16210607  0.16462641  0.48958693    -0.09100
C192        C  0.16745137  0.13263782  0.47514991     0.29800
F193        F  0.19682330  0.12555964  0.45873926    -0.19600
H194        H  0.14752352  0.08311884  0.46661331     0.18200
H195        H  0.13537196  0.18699314  0.02755432     0.18200
F196        F  0.08597559  0.14487708  0.03439231    -0.19600
C197        C  0.36455761  0.97988147  0.33525942    -0.21000
C198        C  0.33536352  0.99967072  0.34012967    -0.09100
C199        C  0.33524093  0.52302819  0.36798129     0.29800
C200        C  0.35955010  0.52116977  0.39333090    -0.21000
C201        C  0.38718086  0.49907499  0.39038212    -0.09100
C202        C  0.39006631  0.97881714  0.35957536     0.29800
F203        F  0.41794668  0.95968530  0.35364532    -0.19600
H204        H  0.36777696  0.96554514  0.31229085     0.18200
H205        H  0.35726546  0.53763404  0.41490783     0.18200
F206        F  0.30947244  0.54547916  0.37098260    -0.19600
C207        C  0.13416480  0.47409543  0.33348436    -0.21000
C208        C  0.15999147  0.00354243  0.33639312    -0.09100
C209        C  0.16115033  0.02630130  0.36336188     0.29800
C210        C  0.13717946  0.02434253  0.38920697    -0.21000
C211        C  0.11160541  0.49602027  0.38611277    -0.09100
C212        C  0.10827814  0.47523020  0.35767333     0.29800
F213        F  0.08042389  0.45568309  0.35357398    -0.19600
H214        H  0.13143129  0.45789989  0.31176074     0.18200
H215        H  0.13833055  0.04217324  0.40978572     0.18200
F216        F  0.18526387  0.05063105  0.36438607    -0.19600
C217        C  0.11237741  0.47943920  0.14039264    -0.21000
C218        C  0.11372792  0.99992676  0.11049368    -0.09100
C219        C  0.14122714  0.02218946  0.10710565     0.29800
C220        C  0.16508741  0.02478120  0.13277614    -0.21000
C221        C  0.16239526  0.00472858  0.16191677    -0.09100
C222        C  0.13728116  0.48010442  0.16520042     0.29800
F223        F  0.13461641  0.45874316  0.19187731    -0.19600
H224        H  0.09112332  0.46242421  0.14335812     0.18200
H225        H  0.18576136  0.04251316  0.12997223     0.18200
F226        F  0.14434181  0.04232482  0.07953922    -0.19600
C227        C  0.33604210  0.02720443  0.13653033    -0.21000
C228        C  0.33886100  0.00717227  0.16560686    -0.09100
C229        C  0.36777487  0.48370161  0.16745357     0.29800
C230        C  0.39240034  0.48271944  0.14209052    -0.21000
C231        C  0.38891918  0.00454082  0.11468552    -0.09100
C232        C  0.36051586  0.02558377  0.11105160     0.29800
F233        F  0.35671588  0.04506833  0.08316233    -0.19600
H234        H  0.31455006  0.04385607  0.13342813     0.18200
H235        H  0.41296124  0.46479675  0.14408378     0.18200
F236        F  0.36980389  0.46168319  0.19361894    -0.19600
C237        C  0.47706840  0.10785094  0.36094224    -0.21000
C238        C  0.99771502  0.11152496  0.38924251    -0.09100
C239        C  0.01726017  0.14090630  0.39271716     0.29800
C240        C  0.01645788  0.16596277  0.36800249    -0.21000
C241        C  0.99578107  0.16248128  0.33971354    -0.09100
C242        C  0.47573750  0.13328114  0.33650745     0.29800
F243        F  0.45510378  0.12928045  0.30967205    -0.19600
H244        H  0.46158717  0.08550574  0.35803834     0.18200
H245        H  0.03244985  0.18796808  0.37064668     0.18200
F246        F  0.03805822  0.14485859  0.41942922    -0.19600
C247        C  0.02353214  0.33423601  0.36641136    -0.21000
C248        C  0.00387223  0.33811779  0.33734404    -0.09100
C249        C  0.48424053  0.36754218  0.33365106     0.29800
C250        C  0.48421517  0.39230049  0.35864909    -0.21000
C251        C  0.00302745  0.38791644  0.38817280    -0.09100
C252        C  0.02304187  0.35875980  0.39169769     0.29800
F253        F  0.04284394  0.35440913  0.41912183    -0.19600
H254        H  0.03923824  0.31205022  0.36951257     0.18200
H255        H  0.46885817  0.41465688  0.35523750     0.18200
F256        F  0.46473679  0.37216948  0.30605723    -0.19600
C257        C  0.02599647  0.36090988  0.11153055    -0.21000
C258        C  0.00244960  0.38732862  0.11412267    -0.09100
C259        C  0.47963021  0.38770807  0.14144978     0.29800
C260        C  0.48042780  0.36191300  0.16559717    -0.21000
C261        C  0.00426057  0.33570093  0.16316000    -0.09100
C262        C  0.02717012  0.33546792  0.13597324     0.29800
F263        F  0.05105734  0.31098845  0.13344105    -0.19600
H264        H  0.04395209  0.36035029  0.09081025     0.18200
H265        H  0.46250469  0.36236800  0.18634618     0.18200
F266        F  0.45604557  0.41243802  0.14433008    -0.19600
C267        C  0.48379537  0.10528813  0.14422817    -0.21000
C268        C  0.00253560  0.10996678  0.11440244    -0.09100
C269        C  0.02206946  0.13934601  0.11057619     0.29800
C270        C  0.02302264  0.16340949  0.13611352    -0.21000
C271        C  0.00356886  0.15934417  0.16553844    -0.09100
C272        C  0.48383772  0.12993129  0.16938422     0.29800
F273        F  0.46413636  0.12528286  0.19714053    -0.19600
H274        H  0.46843488  0.08288976  0.14770082     0.18200
H275        H  0.03872480  0.18558049  0.13274833     0.18200
F276        F  0.04079625  0.14454679  0.08238837    -0.19600
N277        N  0.01165118  0.24906062  0.80259906    -0.36300
N278        N  0.01214598  0.30155762  0.75166630    -0.56900
N279        N  0.01455432  0.25068682  0.69968526    -0.36300
N280        N  0.01143698  0.19828289  0.75067681    -0.56900
C281        C  0.00198172  0.27630413  0.82071314     0.27300
C282        C  0.00204556  0.22130444  0.82012455     0.27300
C283        C  0.00529175  0.27853115  0.68225036     0.27200
C284        C  0.00474411  0.22354747  0.68163982     0.27200
C285        C  0.01886880  0.31999377  0.77933797     0.35900
C286        C  0.02080145  0.32082141  0.72483881     0.35900
C287        C  0.01828134  0.17877660  0.77769353     0.35900
C288        C  0.01936212  0.17975039  0.72330232     0.35900
C289        C  0.98585830  0.26575884  0.85002694    -0.21600
C290        C  0.98589448  0.23098993  0.84965473    -0.21600
C291        C  0.98901346  0.26894997  0.65298534    -0.21600
C292        C  0.98887434  0.23419339  0.65250623    -0.21600
C293        C  0.03239680  0.35097611  0.77013699    -0.22700
C294        C  0.03373622  0.35146549  0.73552361    -0.22700
C295        C  0.03111671  0.14785916  0.76748032    -0.22700
C296        C  0.03176146  0.14846968  0.73289827    -0.22700
C297        C  0.00968032  0.31020338  0.81237851    -0.18000
C298        C  0.00981002  0.18766608  0.81105776    -0.18000
C299        C  0.01175059  0.18958957  0.69009385    -0.18000
C300        C  0.01346662  0.31209946  0.69119666    -0.18000
H301        H  0.97548500  0.28146184  0.86980796     0.14900
H302        H  0.97552460  0.21471420  0.86907582     0.14900
H303        H  0.97862312  0.28527101  0.63377216     0.14900
H304        H  0.97840758  0.21855495  0.63289472     0.14900
H305        H  0.03986630  0.37131328  0.78660556     0.13200
H306        H  0.04246625  0.37228016  0.72004277     0.13200
H307        H  0.03849215  0.12681629  0.78323859     0.13200
H308        H  0.03965618  0.12798645  0.71667943     0.13200
H309        H  0.02748294  0.24936378  0.78153929     0.26400
H310        H  0.03012457  0.25021377  0.72071219     0.26400
O311        O  0.00396154  0.09660015  0.55594065    -0.86200
O312        O  0.00502425  0.40440627  0.55607044    -0.86400
O313        O  0.44467237  0.00112256  0.59667268    -0.88100
O314        O  0.05546049  0.99968580  0.59581894    -0.86800
O315        O  0.09848384  0.49910024  0.55298939    -0.86400
O316        O  0.40643829  0.50405303  0.55722106    -0.87800
O317        O  0.00259301  0.44548191  0.59663064    -0.86200
O318        O  0.00142644  0.05586379  0.59713822    -0.85800
Zr319      Zr  0.00261467  0.49987198  0.56838748     2.84300
O320        O  0.03676366  0.46576106  0.53398128    -1.07800
O321        O  0.46535933  0.03443696  0.53548128    -1.08500
C322        C  0.00370297  0.08684442  0.58706762     1.06900
C323        C  0.00437257  0.41445408  0.58703321     1.06800
C324        C  0.41359011  0.00106907  0.58682072     1.09800
C325        C  0.08649529  0.00083990  0.58549844     1.07600
H326        H  0.45371686  0.45152286  0.54976181     0.33200
O327        O  0.46769802  0.46555754  0.53542537    -1.28800
H328        H  0.04881365  0.04923926  0.54836126     0.32800
O329        O  0.03446011  0.03508303  0.53486344    -1.30400
O330        O  0.00394001  0.40290673  0.94731604    -0.86200
O331        O  0.00472671  0.09541433  0.94630068    -0.87700
O332        O  0.40685448  0.44469659  0.99984722    -0.86300
O333        O  0.09872705  0.44512143  0.99756161    -0.86300
O334        O  0.09856457  0.05237157  0.99619503    -0.86000
O335        O  0.40645166  0.05700207  0.00094907    -0.85900
O336        O  0.44639659  0.49665362  0.90524194    -0.86200
O337        O  0.05535482  0.49890479  0.90451807    -0.85700
O338        O  0.40562733  0.49918229  0.94650682    -0.86800
O339        O  0.09676199  0.50220359  0.94460199    -0.85900
O340        O  0.44798433  0.40366301  0.00188557    -0.86300
O341        O  0.44843841  0.09713428  0.00263302    -0.86000
O342        O  0.05829349  0.09396288  0.99935639    -0.85700
O343        O  0.05800927  0.40394471  0.00162904    -0.86100
O344        O  0.00078936  0.44342562  0.90599307    -0.86400
O345        O  0.99923591  0.05481718  0.90557803    -0.87700
Zr346      Zr  0.00274239  0.43138141  0.00186830     2.83100
Zr347      Zr  0.00219737  0.06773927  0.00130531     2.83500
Zr348      Zr  0.43363022  0.49974816  0.00125589     2.84100
Zr349      Zr  0.07010755  0.49985664  0.00009434     2.83400
Zr350      Zr  0.00103258  0.49862912  0.93314389     2.81300
O351        O  0.03372508  0.03285657  0.96603043    -1.08300
O352        O  0.46765005  0.46468213  0.96796455    -1.07800
C353        C  0.00269746  0.41246755  0.91618527     1.06900
C354        C  0.00282918  0.08564435  0.91534965     1.09500
C355        C  0.41698411  0.41373237  0.00045181     1.07000
C356        C  0.08899349  0.41396815  0.99891237     1.07400
C357        C  0.08927539  0.08364122  0.99704625     1.07000
C358        C  0.41725509  0.08775309  0.00151673     1.06500
C359        C  0.41530948  0.49762904  0.91536650     1.07000
C360        C  0.08642338  0.50089040  0.91387089     1.06500
H361        H  0.45210309  0.04981797  0.95394943     0.33100
O362        O  0.46585571  0.03526913  0.96775743    -1.29400
H363        H  0.05032542  0.45126720  0.95254139     0.33200
O364        O  0.03622057  0.46524072  0.96673051    -1.30800
N365        N  0.24717339  0.01170513  0.80179090    -0.36300
N366        N  0.19628228  0.00822534  0.74936053    -0.56900
N367        N  0.24892476  0.00514646  0.69914027    -0.36300
N368        N  0.29992348  0.00522598  0.75150243    -0.56900
C369        C  0.21880523  0.00471722  0.81967843     0.27300
C370        C  0.27384362  0.00245442  0.82091409     0.27300
C371        C  0.22181611  0.99552143  0.68102359     0.27200
C372        C  0.27680092  0.99544256  0.68189418     0.27200
C373        C  0.17688980  0.01800955  0.77561090     0.35900
C374        C  0.17770540  0.01341694  0.72147957     0.35900
C375        C  0.31838203  0.01389915  0.77865889     0.35900
C376        C  0.31905913  0.01254403  0.72410371     0.35900
C377        C  0.22749746  0.99074132  0.85048051    -0.21600
C378        C  0.26224880  0.98923740  0.85121909    -0.21600
C379        C  0.23253795  0.97925726  0.65200439    -0.21600
C380        C  0.26730902  0.97913495  0.65257890    -0.21600
C381        C  0.14592211  0.02978496  0.76437859    -0.22700
C382        C  0.14642961  0.02682891  0.72997185    -0.22700
C383        C  0.34928374  0.02697210  0.76852316    -0.22700
C384        C  0.34958820  0.02644655  0.73391384    -0.22700
C385        C  0.18548990  0.01256109  0.80954672    -0.18000
C386        C  0.30822217  0.00798321  0.81237171    -0.18000
C387        C  0.31031924  0.00378026  0.69076249    -0.18000
C388        C  0.18790746  0.00355935  0.68891019    -0.18000
H389        H  0.21058854  0.98263041  0.87046082     0.14900
H390        H  0.27723975  0.97980025  0.87187985     0.14900
H391        H  0.21695906  0.96900146  0.63224125     0.14900
H392        H  0.28369683  0.96869625  0.63331955     0.14900
H393        H  0.12490183  0.03883035  0.77944106     0.13200
H394        H  0.12596051  0.03330389  0.71322720     0.13200
H395        H  0.36945996  0.03593328  0.78440044     0.13200
H396        H  0.37017385  0.03481355  0.71785733     0.13200
H397        H  0.24826530  0.02552785  0.77947203     0.26400
H398        H  0.24861824  0.02124054  0.71979117     0.26400
N399        N  0.25281241  0.30166660  0.99023314    -0.36300
N400        N  0.20157799  0.24878576  0.99078242    -0.56900
N401        N  0.25400659  0.19820580  0.99085421    -0.36300
N402        N  0.30508452  0.25105285  0.99400970    -0.56900
C403        C  0.22475783  0.31968258  0.99778392     0.27300
C404        C  0.27975026  0.32071082  0.99882690     0.27300
C405        C  0.22653892  0.17910729  0.99811445     0.27200
C406        C  0.28143920  0.18063613  0.00089368     0.27200
C407        C  0.18225822  0.27599451  0.98357527     0.35900
C408        C  0.18302511  0.22125248  0.98297711     0.35900
C409        C  0.32437160  0.27839466  0.98749222     0.35900
C410        C  0.32501270  0.22398977  0.98857199     0.35900
C411        C  0.23398908  0.35060099  0.01121894    -0.21600
C412        C  0.26873023  0.35125195  0.01185400    -0.21600
C413        C  0.23667414  0.14906796  0.01299269    -0.21600
C414        C  0.27137397  0.14999522  0.01464973    -0.21600
C415        C  0.15136277  0.26575577  0.97102015    -0.22700
C416        C  0.15189806  0.23106057  0.97049713    -0.22700
C417        C  0.35664964  0.26868793  0.97768702    -0.22700
C418        C  0.35706845  0.23409499  0.97841648    -0.22700
C419        C  0.19122174  0.30975596  0.99075355    -0.18000
C420        C  0.31394423  0.31184751  0.99339516    -0.18000
C421        C  0.31534948  0.19052465  0.99559356    -0.18000
C422        C  0.19283409  0.18756036  0.98993249    -0.18000
H423        H  0.21744501  0.37075695  0.01946867     0.14900
H424        H  0.28409935  0.37195130  0.02070286     0.14900
H425        H  0.22078683  0.12849445  0.02157919     0.14900
H426        H  0.28739462  0.13023370  0.02459164     0.14900
H427        H  0.13050749  0.28163571  0.96335632     0.13200
H428        H  0.13150849  0.21491640  0.96233331     0.13200
H429        H  0.37782142  0.28481263  0.97122539     0.13200
H430        H  0.37862840  0.21824165  0.97265749     0.13200
H431        H  0.25355992  0.27937211  0.97649786     0.26400
H432        H  0.25432203  0.22010966  0.97632839     0.26400
C433        C  0.36486481  0.39076236  0.97532535    -0.21000
C434        C  0.39079684  0.38776633  0.99900264    -0.09100
C435        C  0.39152163  0.35929679  0.51933926     0.29800
C436        C  0.36675587  0.33426447  0.51761350    -0.21000
C437        C  0.34017466  0.33843225  0.99550242    -0.09100
C438        C  0.33988377  0.36607012  0.97327841     0.29800
F439        F  0.31569382  0.36889212  0.94939832    -0.19600
H440        H  0.36436724  0.41193874  0.95799504     0.18200
H441        H  0.36780080  0.31307008  0.53487181     0.18200
F442        F  0.41613512  0.35667348  0.54281894    -0.19600
C443        C  0.38877341  0.13863509  0.52647851    -0.21000
C444        C  0.39173215  0.11433404  0.99994598    -0.09100
C445        C  0.36665873  0.11316357  0.97522501     0.29800
C446        C  0.34200599  0.13816792  0.97387281    -0.21000
C447        C  0.34193716  0.16442834  0.99736016    -0.09100
C448        C  0.36364001  0.16348342  0.52676194     0.29800
F449        F  0.36630821  0.18987087  0.54827858    -0.19600
H450        H  0.41019473  0.14112000  0.54310488     0.18200
H451        H  0.32292140  0.13714543  0.95449473     0.18200
F452        F  0.36662947  0.08832975  0.95186561    -0.19600
C453        C  0.16532329  0.36365816  0.97000534    -0.21000
C454        C  0.16423284  0.33593008  0.99210861    -0.09100
C455        C  0.13722742  0.33387552  0.50600090     0.29800
C456        C  0.11238635  0.35876866  0.50848049    -0.21000
C457        C  0.11522237  0.38750539  0.99672026    -0.09100
C458        C  0.14112582  0.38934852  0.97232097     0.29800
F459        F  0.14242582  0.41543303  0.95009693    -0.19600
H460        H  0.18509527  0.36540983  0.95106266     0.18200
H461        H  0.09164620  0.35521077  0.52610060     0.18200
F462        F  0.13477841  0.30605523  0.52589320    -0.19600
C463        C  0.14481873  0.10540196  0.97469484    -0.21000
C464        C  0.11610964  0.10980450  0.99533244    -0.09100
C465        C  0.10551499  0.14685225  0.50652490     0.29800
C466        C  0.13090365  0.17135999  0.50527308    -0.21000
C467        C  0.16640066  0.16057868  0.99120654    -0.09100
C468        C  0.16949069  0.13076380  0.97216406     0.29800
F469        F  0.19615955  0.12636562  0.95091093    -0.19600
H470        H  0.14775394  0.08266012  0.95993107     0.18200
H471        H  0.12621992  0.19571237  0.51672815     0.18200
F472        F  0.07557578  0.15485974  0.52130983    -0.19600
C473        C  0.36213775  0.98446658  0.83637325    -0.21000
C474        C  0.33445241  0.00653710  0.83941946    -0.09100
C475        C  0.33455974  0.51928341  0.86948498     0.29800
C476        C  0.35927218  0.51709740  0.89436929    -0.21000
C477        C  0.38866498  0.49783874  0.88930035    -0.09100
C478        C  0.38684715  0.98278510  0.86143997     0.29800
F479        F  0.41283819  0.96076845  0.85768362    -0.19600
H480        H  0.36453588  0.96836292  0.81450589     0.18200
H481        H  0.35588393  0.53136444  0.91730994     0.18200
F482        F  0.30756620  0.53984566  0.87459192    -0.19600
C483        C  0.13522065  0.47999501  0.83469392    -0.21000
C484        C  0.15801106  0.01211862  0.83516100    -0.09100
C485        C  0.15936892  0.03308323  0.86357120     0.29800
C486        C  0.13465647  0.03040415  0.88869960    -0.21000
C487        C  0.11223575  0.50159314  0.88716735    -0.09100
C488        C  0.11009457  0.47963712  0.85955164     0.29800
F489        F  0.08424568  0.45725108  0.85712225    -0.19600
H490        H  0.13367735  0.46244574  0.81391431     0.18200
H491        H  0.13631583  0.04631136  0.91072391     0.18200
F492        F  0.18473819  0.05583879  0.86706771    -0.19600
C493        C  0.11251685  0.47866571  0.63932731    -0.21000
C494        C  0.11288150  0.00089014  0.61137540    -0.09100
C495        C  0.14182433  0.02120138  0.60767344     0.29800
C496        C  0.16605465  0.02192652  0.63299491    -0.21000
C497        C  0.16224409  0.00183056  0.66191515    -0.09100
C498        C  0.13709016  0.47998128  0.66449297     0.29800
F499        F  0.13373695  0.45955669  0.69182521    -0.19600
H500        H  0.09110563  0.46187702  0.64251071     0.18200
H501        H  0.18778571  0.03835805  0.63019430     0.18200
F502        F  0.14617161  0.04112528  0.58011019    -0.19600
C503        C  0.33211180  0.02028064  0.63354953    -0.21000
C504        C  0.33704814  0.00298558  0.66408099    -0.09100
C505        C  0.36605223  0.48733092  0.66684950     0.29800
C506        C  0.39089454  0.48504133  0.64177861    -0.21000
C507        C  0.38703053  0.00163234  0.61306107    -0.09100
C508        C  0.35651168  0.01911227  0.60798174     0.29800
F509        F  0.35058565  0.03575727  0.57867820    -0.19600
H510        H  0.30915303  0.03459101  0.62946715     0.18200
H511        H  0.40934723  0.46486260  0.64296501     0.18200
F512        F  0.36535978  0.46397070  0.69191188    -0.19600
C513        C  0.48570749  0.10816244  0.85939003    -0.21000
C514        C  0.00485745  0.11169452  0.88878839    -0.09100
C515        C  0.02619158  0.13985340  0.89212504     0.29800
C516        C  0.02799420  0.16410566  0.86655518    -0.21000
C517        C  0.00835308  0.16093097  0.83745600    -0.09100
C518        C  0.48712728  0.13267783  0.83405845     0.29800
F519        F  0.46740379  0.12904835  0.80650386    -0.19600
H520        H  0.46910746  0.08666451  0.85631196     0.18200
H521        H  0.04473128  0.18552113  0.86943198     0.18200
F522        F  0.04599276  0.14346006  0.91962780    -0.19600
C523        C  0.02744550  0.33358219  0.86804602    -0.21000
C524        C  0.00742377  0.33639204  0.83915527    -0.09100
C525        C  0.48542538  0.36411868  0.83598478     0.29800
C526        C  0.48404541  0.38882823  0.86106679    -0.21000
C527        C  0.00400101  0.38596184  0.89004011    -0.09100
C528        C  0.02571481  0.35801773  0.89334804     0.29800
F529        F  0.04619845  0.35498708  0.92043637    -0.19600
H530        H  0.04467663  0.31250893  0.87081596     0.18200
H531        H  0.46705430  0.41004309  0.85806108     0.18200
F532        F  0.46511420  0.36710650  0.80875154    -0.19600
C533        C  0.02562946  0.35919206  0.60830726    -0.21000
C534        C  0.00640566  0.38847918  0.61371713    -0.09100
C535        C  0.49024896  0.39304585  0.64508348     0.29800
C536        C  0.49270750  0.36827725  0.67009430    -0.21000
C537        C  0.01212923  0.33902453  0.66479529    -0.09100
C538        C  0.02898737  0.33497612  0.63370851     0.29800
F539        F  0.04869714  0.30752630  0.62786180    -0.19600
H540        H  0.03873292  0.35538293  0.58457806     0.18200
H541        H  0.47913097  0.37179971  0.69359900     0.18200
F542        F  0.47134250  0.42099260  0.65130803    -0.19600
C543        C  0.48547256  0.11111206  0.64217927    -0.21000
C544        C  0.00612861  0.11310314  0.61334823    -0.09100
C545        C  0.02902832  0.14012871  0.61014291     0.29800
C546        C  0.03066719  0.16496168  0.63505586    -0.21000
C547        C  0.00959910  0.16322029  0.66358325    -0.09100
C548        C  0.48689452  0.13607902  0.66693355     0.29800
F549        F  0.46585692  0.13395604  0.69401182    -0.19600
H550        H  0.46772554  0.09048837  0.64521631     0.18200
H551        H  0.04864146  0.18543237  0.63230944     0.18200
F552        F  0.05068686  0.14184378  0.58359874    -0.19600
N553        N  0.00597377  0.74849439  0.30264235    -0.36300
N554        N  0.01011209  0.80030114  0.25186642    -0.56900
N555        N  0.00906685  0.74893502  0.19980858    -0.36300
N556        N  0.00179908  0.69708914  0.25069743    -0.56900
C557        C  0.99755729  0.77622555  0.32066246     0.27300
C558        C  0.99437931  0.72133865  0.31983923     0.27300
C559        C  0.00267435  0.77728736  0.18188695     0.27200
C560        C  0.99793765  0.72244739  0.18150857     0.27200
C561        C  0.01778319  0.81852261  0.27950419     0.35900
C562        C  0.02007611  0.81875565  0.22489492     0.35900
C563        C  0.00903825  0.67794895  0.27783111     0.35900
C564        C  0.00904980  0.67803705  0.22349589     0.35900
C565        C  0.97997135  0.76655382  0.34946128    -0.21600
C566        C  0.97804080  0.73184092  0.34897690    -0.21600
C567        C  0.98709089  0.76868945  0.15193294    -0.21600
C568        C  0.98421927  0.73404785  0.15165966    -0.21600
C569        C  0.03335302  0.84846718  0.27007760    -0.22700
C570        C  0.03469907  0.84866666  0.23542825    -0.22700
C571        C  0.02150454  0.64678217  0.26783828    -0.22700
C572        C  0.02123465  0.64674842  0.23327788    -0.22700
C573        C  0.00760567  0.80961490  0.31262297    -0.18000
C574        C  0.00114095  0.68742796  0.31114414    -0.18000
C575        C  0.00237220  0.68808304  0.19018743    -0.18000
C576        C  0.01248752  0.81035987  0.19117633    -0.18000
H577        H  0.96993438  0.78274221  0.36901470     0.14900
H578        H  0.96636189  0.71610165  0.36810742     0.14900
H579        H  0.97886191  0.78555412  0.13214633     0.14900
H580        H  0.97350980  0.71909225  0.13165250     0.14900
H581        H  0.04206473  0.86841610  0.28639859     0.13200
H582        H  0.04459511  0.86882497  0.21976954     0.13200
H583        H  0.02934653  0.62601651  0.28373154     0.13200
H584        H  0.02892078  0.62605857  0.21722463     0.13200
H585        H  0.02237255  0.74774332  0.28201602     0.26400
H586        H  0.02368220  0.74749985  0.22145345     0.26400
O587        O  0.00175176  0.59540827  0.05565149    -0.86200
O588        O  0.00278600  0.90326447  0.05611458    -0.86400
O589        O  0.44710071  0.50047380  0.09689254    -0.88100
O590        O  0.05751702  0.49826566  0.09599614    -0.86800
O591        O  0.09689118  0.99901908  0.05331439    -0.86400
O592        O  0.40470174  0.00351102  0.05716433    -0.87800
O593        O  0.00118386  0.94415449  0.09683648    -0.86200
O594        O  0.00016162  0.55447185  0.09675121    -0.85800
Zr595      Zr  0.00089074  0.99881541  0.06860034     2.84300
O596        O  0.03486344  0.96471722  0.03419233    -1.07800
O597        O  0.46760087  0.53355201  0.03525287    -1.08500
C598        C  0.00073557  0.58553638  0.08671207     1.06900
C599        C  0.00274540  0.91311044  0.08715077     1.06800
C600        C  0.41606296  0.50233628  0.08724878     1.09800
C601        C  0.08860835  0.49932436  0.08567869     1.07600
H602        H  0.45116377  0.95167079  0.04983956     0.33200
O603        O  0.46530814  0.96563354  0.03558516    -1.28800
H604        H  0.05021025  0.54820517  0.04839926     0.32800
O605        O  0.03611095  0.53402057  0.03465039    -1.30400
O606        O  0.00266661  0.90296019  0.44832418    -0.86200
O607        O  0.00127169  0.59548676  0.44605986    -0.87700
O608        O  0.40459055  0.94491256  0.49871687    -0.86300
O609        O  0.09665722  0.94632103  0.49913207    -0.86300
O610        O  0.09782739  0.55492972  0.49594136    -0.86000
O611        O  0.40513478  0.55474891  0.50201105    -0.85900
O612        O  0.44452981  0.99589778  0.40552136    -0.86200
O613        O  0.05421914  0.99826257  0.40513895    -0.85700
O614        O  0.40393039  0.99932973  0.44686271    -0.86800
O615        O  0.09561760  0.00140226  0.44526105    -0.85900
O616        O  0.44596680  0.90427982  0.50192770    -0.86300
O617        O  0.44609122  0.59573846  0.50471375    -0.86000
O618        O  0.05667432  0.59571256  0.49964866    -0.85700
O619        O  0.05614401  0.90488278  0.50222150    -0.86100
O620        O  0.00018503  0.94333898  0.40682954    -0.86400
O621        O  0.99949463  0.55456183  0.40524830    -0.87700
Zr622      Zr  0.00098489  0.93195218  0.50270591     2.83100
Zr623      Zr  0.00145763  0.56817765  0.50097717     2.83500
Zr624      Zr  0.43213033  0.99959188  0.50145788     2.84100
Zr625      Zr  0.06823939  0.00110277  0.50022304     2.83400
Zr626      Zr  0.99939442  0.99900404  0.43334916     2.81300
O627        O  0.03480359  0.53426924  0.46559886    -1.08300
O628        O  0.46620256  0.96482015  0.46820018    -1.07800
C629        C  0.00190105  0.91234588  0.41709636     1.06900
C630        C  0.00036114  0.58555120  0.41515235     1.09500
C631        C  0.41488110  0.91402075  0.49968055     1.07000
C632        C  0.08707264  0.91512002  0.50012598     1.07400
C633        C  0.08780256  0.58593221  0.49742996     1.07000
C634        C  0.41494915  0.58576889  0.50404549     1.06500
C635        C  0.41343142  0.99716022  0.41572153     1.07000
C636        C  0.08533485  0.99976438  0.41456431     1.06500
H637        H  0.45229943  0.54860102  0.45351354     0.33100
O638        O  0.46662460  0.53448279  0.46720723    -1.29400
H639        H  0.04851112  0.95192630  0.45348960     0.33200
O640        O  0.03431993  0.96599997  0.46749005    -1.30800
N641        N  0.25078568  0.50098762  0.30200978    -0.36300
N642        N  0.19975175  0.49973080  0.24962283    -0.56900
N643        N  0.25215298  0.50758252  0.19940412    -0.36300
N644        N  0.30317494  0.50592190  0.25197065    -0.56900
C645        C  0.22352290  0.48913053  0.31899378     0.27300
C646        C  0.27837006  0.49357589  0.32055422     0.27300
C647        C  0.22541122  0.49839265  0.18046246     0.27200
C648        C  0.28040483  0.49959346  0.18180017     0.27200
C649        C  0.18006411  0.50441465  0.27709733     0.35900
C650        C  0.18098682  0.50891420  0.22284624     0.35900
C651        C  0.32163603  0.51268121  0.27958704     0.35900
C652        C  0.32251682  0.51438085  0.22514065     0.35900
C653        C  0.23390277  0.47372819  0.34858275    -0.21600
C654        C  0.26856639  0.47665382  0.34962484    -0.21600
C655        C  0.23676328  0.48437807  0.15054169    -0.21600
C656        C  0.27151329  0.48505860  0.15141099    -0.21600
C657        C  0.14874390  0.51694979  0.26778008    -0.22700
C658        C  0.14936524  0.51985832  0.23333237    -0.22700
C659        C  0.35275617  0.52597053  0.27030265    -0.22700
C660        C  0.35334106  0.52699045  0.23569343    -0.22700
C661        C  0.18951986  0.49536776  0.31010583    -0.18000
C662        C  0.31181547  0.50355409  0.31261912    -0.18000
C663        C  0.31382030  0.50732014  0.19151947    -0.18000
C664        C  0.19113723  0.50389795  0.18911712    -0.18000
H665        H  0.21805729  0.46232197  0.36781483     0.14900
H666        H  0.28465398  0.46771079  0.36967981     0.14900
H667        H  0.22161408  0.47464185  0.13020595     0.14900
H668        H  0.28831653  0.47606908  0.13177193     0.14900
H669        H  0.12755690  0.52313678  0.28400561     0.13200
H670        H  0.12872717  0.52844100  0.21776193     0.13200
H671        H  0.37318698  0.53330346  0.28668777     0.13200
H672        H  0.37431627  0.53526664  0.22008718     0.13200
H673        H  0.25014976  0.51704666  0.28123720     0.26400
H674        H  0.25114588  0.52185681  0.22135701     0.26400
N675        N  0.25125459  0.80189209  0.49418783    -0.36300
N676        N  0.19952515  0.75052204  0.49603266    -0.56900
N677        N  0.25120461  0.69922590  0.50226788    -0.36300
N678        N  0.30295300  0.75035242  0.50373705    -0.56900
C679        C  0.22345610  0.82059011  0.50121230     0.27300
C680        C  0.27846388  0.82054708  0.50260315     0.27300
C681        C  0.22288379  0.68140576  0.50919871     0.27200
C682        C  0.27760774  0.68149242  0.51456680     0.27200
C683        C  0.18102676  0.77749433  0.48647327     0.35900
C684        C  0.18131747  0.72289749  0.48815022     0.35900
C685        C  0.32237352  0.77683268  0.49438797     0.35900
C686        C  0.32241662  0.72253507  0.50011920     0.35900
C687        C  0.23321481  0.85140970  0.51452183    -0.21600
C688        C  0.26799246  0.85148746  0.51509919    -0.21600
C689        C  0.23124732  0.65218735  0.52658308    -0.21600
C690        C  0.26590177  0.65225308  0.52998753    -0.21600
C691        C  0.15098838  0.76700927  0.47215940    -0.22700
C692        C  0.15118419  0.73229976  0.47319474    -0.22700
C693        C  0.35431005  0.76587394  0.48489295    -0.22700
C694        C  0.35431759  0.73139707  0.48844290    -0.22700
C695        C  0.18983794  0.81123275  0.49360866    -0.18000
C696        C  0.31242872  0.81088814  0.49731912    -0.18000
C697        C  0.31197755  0.68953842  0.50883378    -0.18000
C698        C  0.19028115  0.68971056  0.49753454    -0.18000
H699        H  0.21705372  0.87191804  0.52263872     0.14900
H700        H  0.28376916  0.87198817  0.52369738     0.14900
H701        H  0.21423701  0.63254427  0.53523841     0.14900
H702        H  0.28086288  0.63264293  0.54169609     0.14900
H703        H  0.13085016  0.78272949  0.46253245     0.13200
H704        H  0.13116071  0.71590762  0.46462351     0.13200
H705        H  0.37546164  0.78114851  0.47653850     0.13200
H706        H  0.37543563  0.71484162  0.48310920     0.13200
H707        H  0.25193787  0.77932471  0.48084702     0.26400
H708        H  0.25277409  0.71977681  0.48593880     0.26400
C709        C  0.36385166  0.88837877  0.47378764    -0.21000
C710        C  0.38894417  0.88761506  0.49857840    -0.09100
C711        C  0.38831419  0.85995473  0.01839583     0.29800
C712        C  0.36387018  0.83474777  0.01550862    -0.21000
C713        C  0.33893985  0.83734135  0.49722477    -0.09100
C714        C  0.33920942  0.86309818  0.47278365     0.29800
F715        F  0.31594649  0.86346371  0.44783902    -0.19600
H716        H  0.36373749  0.90820839  0.45493333     0.18200
H717        H  0.36465032  0.81323261  0.03238712     0.18200
F718        F  0.41259407  0.85673397  0.04214476    -0.19600
C719        C  0.38949694  0.63874379  0.02299179    -0.21000
C720        C  0.38829178  0.61187097  0.50588528    -0.09100
C721        C  0.35948752  0.60983537  0.48546108     0.29800
C722        C  0.33450258  0.63473997  0.48722056    -0.21000
C723        C  0.33757232  0.66193378  0.50953708    -0.09100
C724        C  0.36411469  0.66342264  0.02337123     0.29800
F725        F  0.36561687  0.68880396  0.04616068    -0.19600
H726        H  0.41005550  0.64050214  0.04074442     0.18200
H727        H  0.31301186  0.63325458  0.47055845     0.18200
F728        F  0.35614435  0.58452385  0.46281552    -0.19600
C729        C  0.16634179  0.86727865  0.47538991    -0.21000
C730        C  0.16282411  0.83751159  0.49444678    -0.09100
C731        C  0.13386949  0.83160544  0.00956166     0.29800
C732        C  0.10856207  0.85622347  0.01121784    -0.21000
C733        C  0.11342958  0.88881462  0.49829345    -0.09100
C734        C  0.14213446  0.89293165  0.47757376     0.29800
F735        F  0.14636575  0.92134123  0.45879725    -0.19600
H736        H  0.18812804  0.87075356  0.45906252     0.18200
H737        H  0.08741925  0.85259692  0.02834620     0.18200
F738        F  0.13131792  0.80382943  0.02953582    -0.19600
C739        C  0.14208540  0.61007537  0.47533001    -0.21000
C740        C  0.11404564  0.61240282  0.49711393    -0.09100
C741        C  0.10766837  0.64444723  0.00918545     0.29800
C742        C  0.13278709  0.66908127  0.00770607    -0.21000
C743        C  0.16402818  0.66300933  0.49697012    -0.09100
C744        C  0.16680611  0.63537724  0.47501110     0.29800
F745        F  0.19314868  0.63320320  0.45303368    -0.19600
H746        H  0.14452800  0.58896281  0.45822106     0.18200
H747        H  0.12843280  0.69306447  0.02003045     0.18200
F748        F  0.07828975  0.65171115  0.02541156    -0.19600
C749        C  0.36511761  0.47970201  0.33677752    -0.21000
C750        C  0.33785831  0.50226382  0.33946297    -0.09100
C751        C  0.33170168  0.01746964  0.37054985     0.29800
C752        C  0.35675832  0.01570837  0.39518795    -0.21000
C753        C  0.38646808  0.99694016  0.38984500    -0.09100
C754        C  0.38969050  0.47818695  0.36188149     0.29800
F755        F  0.41546735  0.45579150  0.35866292    -0.19600
H756        H  0.36727214  0.46320822  0.31517511     0.18200
H757        H  0.35335441  0.02995246  0.41816544     0.18200
F758        F  0.30428500  0.03734575  0.37612189    -0.19600
C759        C  0.13429679  0.97917448  0.33532386    -0.21000
C760        C  0.16312749  0.49433541  0.33692093    -0.09100
C761        C  0.16625808  0.51497459  0.36539033     0.29800
C762        C  0.14096992  0.51536795  0.38991802    -0.21000
C763        C  0.11126648  0.00026257  0.38800178    -0.09100
C764        C  0.10987816  0.97763252  0.36087498     0.29800
F765        F  0.08547074  0.95358996  0.35957614    -0.19600
H766        H  0.13336296  0.96128686  0.31479155     0.18200
H767        H  0.14393558  0.53161147  0.41157744     0.18200
F768        F  0.19342451  0.53551045  0.36902051    -0.19600
C769        C  0.11084962  0.98002235  0.13967393    -0.21000
C770        C  0.11522804  0.49993070  0.11161188    -0.09100
C771        C  0.14347963  0.52126234  0.10807673     0.29800
C772        C  0.16778831  0.52277024  0.13344110    -0.21000
C773        C  0.16492898  0.50232600  0.16229483    -0.09100
C774        C  0.13518917  0.98196191  0.16494492     0.29800
F775        F  0.13231241  0.96140817  0.19222246    -0.19600
H776        H  0.08991125  0.96262258  0.14269133     0.18200
H777        H  0.18892384  0.53994983  0.13060594     0.18200
F778        F  0.14706017  0.54138740  0.08055671    -0.19600
C779        C  0.33881209  0.52845413  0.13744882    -0.21000
C780        C  0.34083376  0.50674145  0.16535744    -0.09100
C781        C  0.36713760  0.98586827  0.16907494     0.29800
C782        C  0.39218888  0.98507430  0.14407179    -0.21000
C783        C  0.39005547  0.50401077  0.11389574    -0.09100
C784        C  0.36306661  0.52698654  0.11174156     0.29800
F785        F  0.36063057  0.54855326  0.08524763    -0.19600
H786        H  0.31821270  0.54637194  0.13553255     0.18200
H787        H  0.41372318  0.96849387  0.14723366     0.18200
F788        F  0.37017504  0.96531791  0.19629680    -0.19600
C789        C  0.48128352  0.60694012  0.35956255    -0.21000
C790        C  0.00017105  0.61175262  0.38890796    -0.09100
C791        C  0.01884496  0.64162202  0.39279753     0.29800
C792        C  0.01917528  0.66587269  0.36730345    -0.21000
C793        C  0.00016940  0.66123832  0.33799455    -0.09100
C794        C  0.48074324  0.63171100  0.33452768     0.29800
F795        F  0.46115088  0.62690549  0.30705727    -0.19600
H796        H  0.46641033  0.58423671  0.35631625     0.18200
H797        H  0.03441161  0.68835506  0.37035710     0.18200
F798        F  0.03756305  0.64693944  0.42077366    -0.19600
C799        C  0.02249326  0.83086382  0.37043898    -0.21000
C800        C  0.00623892  0.83609603  0.33947989    -0.09100
C801        C  0.48806948  0.86626728  0.33466970     0.29800
C802        C  0.48710079  0.89092469  0.35982567    -0.21000
C803        C  0.00319795  0.88567991  0.39083446    -0.09100
C804        C  0.02069048  0.85511666  0.39602908     0.29800
F805        F  0.03679768  0.84898324  0.42546842    -0.19600
H806        H  0.03658579  0.80782670  0.37480264     0.18200
H807        H  0.47312580  0.91398132  0.35525672     0.18200
F808        F  0.47070715  0.87166242  0.30582097    -0.19600
C809        C  0.02629062  0.85873221  0.10911603    -0.21000
C810        C  0.00528611  0.88697252  0.11382015    -0.09100
C811        C  0.48788548  0.89055552  0.14466429     0.29800
C812        C  0.49087712  0.86594506  0.16981541    -0.21000
C813        C  0.01174996  0.83763570  0.16509297    -0.09100
C814        C  0.02993934  0.83454367  0.13464531     0.29800
F815        F  0.05110137  0.80802317  0.12957568    -0.19600
H816        H  0.04041578  0.85573018  0.08585035     0.18200
H817        H  0.47638378  0.86868031  0.19288945     0.18200
F818        F  0.46713195  0.91731040  0.15014346    -0.19600
C819        C  0.47852982  0.60948670  0.14071184    -0.21000
C820        C  0.00055983  0.61191825  0.11290507    -0.09100
C821        C  0.02273339  0.63953231  0.11057318     0.29800
C822        C  0.02295795  0.66416803  0.13563081    -0.21000
C823        C  0.00088793  0.66194740  0.16334422    -0.09100
C824        C  0.47840958  0.63443909  0.16562328     0.29800
F825        F  0.45635107  0.63178684  0.19184990    -0.19600
H826        H  0.46114744  0.58845036  0.14290500     0.18200
H827        H  0.04075035  0.68487416  0.13367283     0.18200
F828        F  0.04517235  0.64197419  0.08474207    -0.19600
N829        N  0.99741767  0.74991074  0.80425766    -0.36300
N830        N  0.99711860  0.80234612  0.75333474    -0.56900
N831        N  0.00329653  0.75090759  0.70124413    -0.36300
N832        N  0.99946097  0.69852565  0.75213002    -0.56900
C833        C  0.98794109  0.77674371  0.82302845     0.27300
C834        C  0.99110394  0.72182579  0.82261405     0.27300
C835        C  0.99489976  0.77884193  0.68346131     0.27200
C836        C  0.99424067  0.72366849  0.68280202     0.27200
C837        C  0.00228296  0.82108343  0.78116599     0.35900
C838        C  0.00733700  0.82143706  0.72693309     0.35900
C839        C  0.00823863  0.68007837  0.77936474     0.35900
C840        C  0.00907408  0.68042191  0.72488531     0.35900
C841        C  0.97529190  0.76558271  0.85377464    -0.21600
C842        C  0.97733828  0.73084466  0.85353218    -0.21600
C843        C  0.98000949  0.76934205  0.65348533    -0.21600
C844        C  0.97942263  0.73453390  0.65314232    -0.21600
C845        C  0.01582399  0.85219175  0.77247783    -0.22700
C846        C  0.01936081  0.85229040  0.73810143    -0.22700
C847        C  0.02366010  0.65028575  0.76942593    -0.22700
C848        C  0.02442693  0.65061953  0.73488910    -0.22700
C849        C  0.99359057  0.81088828  0.81416822    -0.18000
C850        C  0.00019396  0.68869692  0.81295193    -0.18000
C851        C  0.00152567  0.68956466  0.69133362    -0.18000
C852        C  0.00248542  0.81246045  0.69291930    -0.18000
H853        H  0.96631270  0.78088220  0.87452360     0.14900
H854        H  0.97014431  0.71420706  0.87402697     0.14900
H855        H  0.97065961  0.78577761  0.63383374     0.14900
H856        H  0.96948551  0.71905728  0.63314226     0.14900
H857        H  0.02259810  0.87260356  0.78915865     0.13200
H858        H  0.02922170  0.87292936  0.72306918     0.13200
H859        H  0.03322505  0.63032858  0.78540344     0.13200
H860        H  0.03479564  0.63099412  0.71899232     0.13200
H861        H  0.01141981  0.75078916  0.78203288     0.26400
H862        H  0.01798901  0.75057610  0.72288565     0.26400
O863        O  0.00296490  0.59589445  0.55596734    -0.86200
O864        O  0.00338907  0.90579145  0.55872862    -0.86400
O865        O  0.44806703  0.50205502  0.59722862    -0.88100
O866        O  0.05806141  0.49751299  0.59479555    -0.86800
O867        O  0.09631404  0.00206279  0.55445062    -0.86400
O868        O  0.40384603  0.00046033  0.55590938    -0.87800
O869        O  0.00111735  0.94737644  0.59879121    -0.86200
O870        O  0.00276862  0.55471022  0.59669854    -0.85800
Zr871      Zr  0.00015923  0.00105477  0.56926673     2.84300
O872        O  0.03485218  0.96704051  0.53548673    -1.07800
O873        O  0.46783334  0.53375316  0.53518201    -1.08500
C874        C  0.00297159  0.58594980  0.58702713     1.06900
C875        C  0.00274474  0.91621821  0.58958782     1.06800
C876        C  0.41693710  0.50442312  0.58795014     1.09800
C877        C  0.08903856  0.49806739  0.58422454     1.07600
H878        H  0.45207258  0.95191508  0.55053175     0.33200
O879        O  0.46610942  0.96597909  0.53629317    -1.28800
H880        H  0.05093291  0.54812303  0.54773042     0.32800
O881        O  0.03654325  0.53421313  0.53400602    -1.30400
O882        O  0.99722601  0.90452823  0.94646754    -0.86200
O883        O  0.00390256  0.59455844  0.94547979    -0.87700
O884        O  0.40364532  0.94604081  0.99906907    -0.86300
O885        O  0.09534947  0.94334322  0.99448136    -0.86300
O886        O  0.09744831  0.55490282  0.99696741    -0.86000
O887        O  0.40513949  0.55437601  0.99933799    -0.85900
O888        O  0.44206631  0.00061372  0.90633131    -0.86200
O889        O  0.05139079  0.00160892  0.90342419    -0.85700
O890        O  0.40169545  0.00311964  0.94797002    -0.86800
O891        O  0.09348008  0.00407922  0.94286732    -0.85900
O892        O  0.44427621  0.90457732  0.00166569    -0.86300
O893        O  0.44591818  0.59553000  0.00173155    -0.86000
O894        O  0.05603837  0.59546790  0.99868827    -0.85700
O895        O  0.05394734  0.90280350  0.99790151    -0.86100
O896        O  0.99445659  0.94538037  0.90537234    -0.86400
O897        O  0.00153648  0.55332241  0.90499206    -0.87700
Zr898      Zr  0.99944269  0.93156979  0.00122681     2.83100
Zr899      Zr  0.00129803  0.56765819  0.00075345     2.83500
Zr900      Zr  0.43165707  0.00098554  0.00187763     2.84100
Zr901      Zr  0.06843963  0.99862438  0.99884133     2.83400
Zr902      Zr  0.99769794  0.99994586  0.93308172     2.81300
O903        O  0.03498607  0.53314107  0.96658016    -1.08300
O904        O  0.46458813  0.96585206  0.96794606    -1.07800
C905        C  0.99519279  0.91440899  0.91555838     1.06900
C906        C  0.00324773  0.58438688  0.91462030     1.09500
C907        C  0.41337174  0.91485482  0.99970811     1.07000
C908        C  0.08506674  0.91237026  0.99493621     1.07400
C909        C  0.08719695  0.58588332  0.99694308     1.07000
C910        C  0.41481427  0.58550114  0.00044338     1.06500
C911        C  0.41101031  0.00208395  0.91667935     1.07000
C912        C  0.08255405  0.00419197  0.91231755     1.06500
H913        H  0.45314814  0.54780889  0.95246194     0.33100
O914        O  0.46718676  0.53383677  0.96659219    -1.29400
H915        H  0.04630699  0.95136054  0.95080137     0.33200
O916        O  0.03290318  0.96529120  0.96562151    -1.30800
N917        N  0.25047631  0.50489095  0.80197936    -0.36300
N918        N  0.19932440  0.50364254  0.74934328    -0.56900
N919        N  0.25195523  0.51187328  0.69880951    -0.36300
N920        N  0.30306873  0.50889645  0.75164600    -0.56900
C921        C  0.22252217  0.49592687  0.81959727     0.27300
C922        C  0.27763311  0.49600705  0.82060447     0.27300
C923        C  0.22561250  0.50180861  0.67964551     0.27200
C924        C  0.28055692  0.50648845  0.68068260     0.27200
C925        C  0.17950976  0.50976619  0.77648610     0.35900
C926        C  0.18028268  0.51038248  0.72201734     0.35900
C927        C  0.32195879  0.51318422  0.77954127     0.35900
C928        C  0.32251772  0.51862313  0.72525264     0.35900
C929        C  0.23188812  0.48114665  0.84981009    -0.21600
C930        C  0.26667269  0.48094052  0.85032961    -0.21600
C931        C  0.23772448  0.49003728  0.64900671    -0.21600
C932        C  0.27231533  0.49325306  0.64955546    -0.21600
C933        C  0.14782166  0.52060175  0.76637413    -0.22700
C934        C  0.14831260  0.52096663  0.73183529    -0.22700
C935        C  0.35344246  0.52599679  0.77079652    -0.22700
C936        C  0.35381675  0.52935889  0.73639266    -0.22700
C937        C  0.18889412  0.50310986  0.81009260    -0.18000
C938        C  0.31180586  0.50348134  0.81243175    -0.18000
C939        C  0.31384136  0.51398398  0.69115970    -0.18000
C940        C  0.19090872  0.50483567  0.68844464    -0.18000
H941        H  0.21537152  0.47174671  0.86956180     0.14900
H942        H  0.28207549  0.47131666  0.87060268     0.14900
H943        H  0.22321228  0.48010880  0.62831084     0.14900
H944        H  0.28946084  0.48625631  0.62940021     0.14900
H945        H  0.12645308  0.52724656  0.78218455     0.13200
H946        H  0.12747500  0.52807909  0.71581288     0.13200
H947        H  0.37415735  0.53195796  0.78736632     0.13200
H948        H  0.37497021  0.53799538  0.72122663     0.13200
H949        H  0.25068022  0.51995900  0.78050288     0.26400
H950        H  0.25043339  0.52471968  0.72157106     0.26400
N951        N  0.25074527  0.80153673  0.98582451    -0.36300
N952        N  0.19940602  0.74988525  0.98731366    -0.56900
N953        N  0.25092083  0.69861670  0.99208990    -0.36300
N954        N  0.30237479  0.74995485  0.99290584    -0.56900
C955        C  0.22283448  0.81966592  0.99391494     0.27300
C956        C  0.27788342  0.81994390  0.99498170     0.27300
C957        C  0.22263912  0.68160900  0.00099568     0.27200
C958        C  0.27744227  0.68153550  0.00496852     0.27200
C959        C  0.18089770  0.77684133  0.97794710     0.35900
C960        C  0.18138257  0.72235783  0.97891218     0.35900
C961        C  0.32190668  0.77672612  0.98469369     0.35900
C962        C  0.32195338  0.72222378  0.98924059     0.35900
C963        C  0.23235872  0.84991522  0.00849733    -0.21600
C964        C  0.26716312  0.85015034  0.00905348    -0.21600
C965        C  0.23118293  0.65373418  0.02038083    -0.21600
C966        C  0.26593716  0.65358878  0.02272052    -0.21600
C967        C  0.15115067  0.76653729  0.96297918    -0.22700
C968        C  0.15157529  0.73183313  0.96332770    -0.22700
C969        C  0.35401024  0.76595012  0.97544656    -0.22700
C970        C  0.35403536  0.73133786  0.97833446    -0.22700
C971        C  0.18927849  0.81026852  0.98626188    -0.18000
C972        C  0.31197091  0.81068770  0.98927277    -0.18000
C973        C  0.31166738  0.68930197  0.99841793    -0.18000
C974        C  0.18988564  0.68943495  0.98941223    -0.18000
H975        H  0.21598500  0.86987471  0.01752381     0.14900
H976        H  0.28278160  0.87028862  0.01869544     0.14900
H977        H  0.21421015  0.63511606  0.03114083     0.14900
H978        H  0.28105376  0.63487007  0.03560720     0.14900
H979        H  0.13102657  0.78236401  0.95349117     0.13200
H980        H  0.13173469  0.71552264  0.95422149     0.13200
H981        H  0.37538649  0.78144150  0.96815382     0.13200
H982        H  0.37538751  0.71488851  0.97361024     0.13200
H983        H  0.25144685  0.77955098  0.97152697     0.26400
H984        H  0.25228978  0.71816471  0.97450765     0.26400
C985        C  0.36158817  0.89135600  0.97335839    -0.21000
C986        C  0.38716844  0.88861223  0.99749476    -0.09100
C987        C  0.38902959  0.86151315  0.52250647     0.29800
C988        C  0.36396431  0.83680500  0.52202969    -0.21000
C989        C  0.33841612  0.83727328  0.99121874    -0.09100
C990        C  0.33760704  0.86569303  0.96989559     0.29800
F991        F  0.31379239  0.86844469  0.94562514    -0.19600
H992        H  0.36069065  0.91301965  0.95666480     0.18200
H993        H  0.36396059  0.81719502  0.54109607     0.18200
F994        F  0.41279180  0.86055076  0.54694503    -0.19600
C995        C  0.39125004  0.63888740  0.52847587    -0.21000
C996        C  0.38807965  0.61165342  0.00033153    -0.09100
C997        C  0.36069413  0.60958484  0.97803460     0.29800
C998        C  0.33565852  0.63456528  0.97803409    -0.21000
C999        C  0.33732569  0.66185526  0.00039409    -0.09100
C1000       C  0.36595559  0.66355492  0.53059990     0.29800
F1001       F  0.36934065  0.68919395  0.55289601    -0.19600
H1002       H  0.41302886  0.64067965  0.54472950     0.18200
H1003       H  0.31522839  0.63300656  0.96010697     0.18200
F1004       F  0.35880600  0.58411648  0.95539990    -0.19600
C1005       C  0.16386599  0.86509263  0.96780035    -0.21000
C1006       C  0.16190257  0.83599821  0.98793203    -0.09100
C1007       C  0.13407050  0.83347431  0.51515609     0.29800
C1008       C  0.10945739  0.85872680  0.51666617    -0.21000
C1009       C  0.11104721  0.88578407  0.99176852    -0.09100
C1010       C  0.13873943  0.88984120  0.96967999     0.29800
F1011       F  0.14110628  0.91735229  0.94933813    -0.19600
H1012       H  0.18497346  0.86859145  0.95061204     0.18200
H1013       H  0.08754366  0.85505568  0.53279174     0.18200
F1014       F  0.13010368  0.80539102  0.53445469    -0.19600
C1015       C  0.14373338  0.60641996  0.97743252    -0.21000
C1016       C  0.11318003  0.61255349  0.99463305    -0.09100
C1017       C  0.11139729  0.64016053  0.51888920     0.29800
C1018       C  0.13622577  0.66514232  0.51888072    -0.21000
C1019       C  0.16327711  0.66298550  0.99050789    -0.09100
C1020       C  0.16835641  0.63159328  0.97485576     0.29800
F1021       F  0.19700838  0.62544442  0.95686967    -0.19600
H1022       H  0.14828928  0.58232261  0.96541008     0.18200
H1023       H  0.13393300  0.68613197  0.53616132     0.18200
F1024       F  0.08537040  0.64251590  0.54103092    -0.19600
C1025       C  0.36702678  0.48093993  0.83461511    -0.21000
C1026       C  0.33801932  0.50100730  0.83934979    -0.09100
C1027       C  0.33172814  0.02656448  0.86854789     0.29800
C1028       C  0.35605825  0.02426361  0.89397921    -0.21000
C1029       C  0.38421376  0.00286213  0.89051781    -0.09100
C1030       C  0.39245326  0.47986266  0.85897068     0.29800
F1031       F  0.42047179  0.46094992  0.85299505    -0.19600
H1032       H  0.37020305  0.46650537  0.81170055     0.18200
H1033       H  0.35320207  0.03972823  0.91613719     0.18200
F1034       F  0.30570348  0.04863405  0.87223504    -0.19600
C1035       C  0.13078287  0.98973266  0.83154501    -0.21000
C1036       C  0.16222904  0.50285943  0.83657777    -0.09100
C1037       C  0.16385331  0.52537877  0.86377387     0.29800
C1038       C  0.13923865  0.52439574  0.88910865    -0.21000
C1039       C  0.10781472  0.00755171  0.88530687    -0.09100
C1040       C  0.10552174  0.98784344  0.85611972     0.29800
F1041       F  0.07961316  0.96581118  0.85200521    -0.19600
H1042       H  0.12936951  0.97339462  0.80979504     0.18200
H1043       H  0.14092104  0.54182724  0.90998188     0.18200
F1044       F  0.18911802  0.54845356  0.86560405    -0.19600
C1045       C  0.10913983  0.98064610  0.64022552    -0.21000
C1046       C  0.11573201  0.49846377  0.61007821    -0.09100
C1047       C  0.14390270  0.51981166  0.60647697     0.29800
C1048       C  0.16774803  0.52209544  0.63215670    -0.21000
C1049       C  0.16482995  0.50218389  0.66139142    -0.09100
C1050       C  0.13388735  0.98064307  0.66508800     0.29800
F1051       F  0.13025877  0.95991863  0.69215357    -0.19600
H1052       H  0.08726187  0.96443884  0.64324282     0.18200
H1053       H  0.18862534  0.53956649  0.62924455     0.18200
F1054       F  0.14770044  0.53950224  0.57868266    -0.19600
C1055       C  0.34251252  0.53652944  0.63909191    -0.21000
C1056       C  0.34151723  0.51298110  0.66558818    -0.09100
C1057       C  0.36711669  0.98458380  0.66861930     0.29800
C1058       C  0.39209245  0.98453459  0.64359308    -0.21000
C1059       C  0.39128801  0.50789425  0.61476720    -0.09100
C1060       C  0.36722346  0.53402881  0.61378093     0.29800
F1061       F  0.36809452  0.55744322  0.58874502    -0.19600
H1062       H  0.32393956  0.55659515  0.63792283     0.18200
H1063       H  0.41516899  0.97047857  0.64779591     0.18200
F1064       F  0.37219379  0.96633513  0.69710503    -0.19600
C1065       C  0.48170252  0.60772036  0.86077528    -0.21000
C1066       C  0.00367569  0.61048173  0.88816604    -0.09100
C1067       C  0.02508865  0.63869620  0.89041954     0.29800
C1068       C  0.02384238  0.66410488  0.86594304    -0.21000
C1069       C  0.00123580  0.66172581  0.83900112    -0.09100
C1070       C  0.48024276  0.63323630  0.83650556     0.29800
F1071       F  0.45807492  0.63034338  0.81077454    -0.19600
H1072       H  0.46501575  0.58616340  0.85865333     0.18200
H1073       H  0.04060779  0.68561518  0.86785644     0.18200
F1074       F  0.04774135  0.64123322  0.91577956    -0.19600
C1075       C  0.01622279  0.83557308  0.86700845    -0.21000
C1076       C  0.99255964  0.83689402  0.84095435    -0.09100
C1077       C  0.46943934  0.86385783  0.83962213     0.29800
C1078       C  0.47055853  0.88939003  0.86379378    -0.21000
C1079       C  0.99422539  0.88792526  0.88985923    -0.09100
C1080       C  0.01697720  0.86077348  0.89140779     0.29800
F1081       F  0.04071546  0.85931584  0.91586094    -0.19600
H1082       H  0.03447117  0.81520899  0.86808130     0.18200
H1083       H  0.45270154  0.91002620  0.86247130     0.18200
F1084       F  0.44592657  0.86543635  0.81496278    -0.19600
C1085       C  0.02287716  0.86092826  0.61229888    -0.21000
C1086       C  0.00363401  0.89042438  0.61655783    -0.09100
C1087       C  0.48503718  0.89475512  0.64658271     0.29800
C1088       C  0.48423483  0.86914036  0.67083090    -0.21000
C1089       C  0.00338141  0.83951507  0.66659605    -0.09100
C1090       C  0.02333121  0.83599630  0.63732404     0.29800
F1091       F  0.04340135  0.80852490  0.63302225    -0.19600
H1092       H  0.03800351  0.85741749  0.58973564     0.18200
H1093       H  0.46861492  0.87247079  0.69308550     0.18200
F1094       F  0.46681186  0.92327614  0.65213219    -0.19600
C1095       C  0.48704642  0.60619403  0.64481323    -0.21000
C1096       C  0.00292208  0.61236483  0.61364217    -0.09100
C1097       C  0.01795953  0.64414443  0.60814435     0.29800
C1098       C  0.01803524  0.66857194  0.63353678    -0.21000
C1099       C  0.00155241  0.66278820  0.66449677    -0.09100
C1100       C  0.48555670  0.63127283  0.66959941     0.29800
F1101       F  0.46800502  0.62476260  0.69837980    -0.19600
H1102       H  0.47476696  0.58220639  0.64964587     0.18200
H1103       H  0.03088642  0.69228028  0.62885160     0.18200
F1104       F  0.03290109  0.65166373  0.57830420    -0.19600
N1105       N  0.50161311  0.24967115  0.30269337    -0.36300
N1106       N  0.50443637  0.30045863  0.25054279    -0.56900
N1107       N  0.50616062  0.24779357  0.19966935    -0.36300
N1108       N  0.49947375  0.19686767  0.25190104    -0.56900
C1109       C  0.49462655  0.27783310  0.32064051     0.27300
C1110       C  0.49107713  0.22284685  0.32114569     0.27300
C1111       C  0.49841086  0.27523399  0.18087554     0.27200
C1112       C  0.49726502  0.22020555  0.18181382     0.27200
C1113       C  0.51192396  0.31977833  0.27744795     0.35900
C1114       C  0.51257540  0.31885965  0.22297318     0.35900
C1115       C  0.50597644  0.17858081  0.27982812     0.35900
C1116       C  0.50936310  0.17770502  0.22554889     0.35900
C1117       C  0.47929788  0.26879320  0.35087850    -0.21600
C1118       C  0.47700905  0.23407633  0.35117215    -0.21600
C1119       C  0.48446250  0.26499698  0.15068250    -0.21600
C1120       C  0.48361487  0.23023836  0.15132234    -0.21600
C1121       C  0.52531300  0.35041067  0.26687569    -0.22700
C1122       C  0.52546980  0.34992219  0.23232150    -0.22700
C1123       C  0.52034485  0.14782898  0.27123452    -0.22700
C1124       C  0.52261103  0.14733152  0.23675540    -0.22700
C1125       C  0.50378605  0.31115005  0.31112835    -0.18000
C1126       C  0.49700782  0.18861850  0.31273215    -0.18000
C1127       C  0.50354281  0.18638815  0.19163891    -0.18000
C1128       C  0.50553612  0.30906575  0.18964413    -0.18000
H1129       H  0.47093969  0.28541850  0.37083605     0.14900
H1130       H  0.46675221  0.21883356  0.37146760     0.14900
H1131       H  0.47594512  0.28089988  0.13023420     0.14900
H1132       H  0.47422754  0.21421810  0.13147254     0.14900
H1133       H  0.53345093  0.37123440  0.28238592     0.13200
H1134       H  0.53373593  0.37024214  0.21594761     0.13200
H1135       H  0.52827756  0.12782053  0.28802572     0.13200
H1136       H  0.53247670  0.12682381  0.22166455     0.13200
H1137       H  0.51653701  0.24855167  0.28105569     0.26400
H1138       H  0.52020488  0.24775821  0.22171804     0.26400
O1139       O  0.50320726  0.09438403  0.05676048    -0.86200
O1140       O  0.50365566  0.40412047  0.05707085    -0.86400
O1141       O  0.94610284  0.00015397  0.09726295    -0.88100
O1142       O  0.55629327  0.99756710  0.09501504    -0.86800
O1143       O  0.59830748  0.50031358  0.05454183    -0.86400
O1144       O  0.90600774  0.50273055  0.05636426    -0.87800
O1145       O  0.50031678  0.44497880  0.09783895    -0.86200
O1146       O  0.50046806  0.05295440  0.09723838    -0.85800
Zr1147     Zr  0.50209051  0.49956780  0.06905947     2.84300
O1148       O  0.53688093  0.46556746  0.03529956    -1.07800
O1149       O  0.96729465  0.03392805  0.03529607    -1.08500
C1150       C  0.50195250  0.08410041  0.08769185     1.06900
C1151       C  0.50195314  0.41393843  0.08802461     1.06800
C1152       C  0.91495959  0.00262304  0.08795019     1.09800
C1153       C  0.58728266  0.99851234  0.08452211     1.07600
H1154       H  0.95362600  0.45154622  0.04962220     0.33200
O1155       O  0.96781784  0.46553124  0.03545372    -1.28800
H1156       H  0.55034182  0.04648747  0.04823562     0.32800
O1157       O  0.53584510  0.03279547  0.03451734    -1.30400
O1158       O  0.50312754  0.40400929  0.44577864    -0.86200
O1159       O  0.49908113  0.09518589  0.44618524    -0.87700
O1160       O  0.90598951  0.44481268  0.49955267    -0.86300
O1161       O  0.59839262  0.44587237  0.49341169    -0.86300
O1162       O  0.59543820  0.05648775  0.49627901    -0.86000
O1163       O  0.90366339  0.05386795  0.50198102    -0.85900
O1164       O  0.94474974  0.49753129  0.40602835    -0.86200
O1165       O  0.55406580  0.49702685  0.40311305    -0.85700
O1166       O  0.90423057  0.50074359  0.44753751    -0.86800
O1167       O  0.59562018  0.49968739  0.44304692    -0.85900
O1168       O  0.94728715  0.40391966  0.50038861    -0.86300
O1169       O  0.94404243  0.09535030  0.50518360    -0.86000
O1170       O  0.55400367  0.09697820  0.49768289    -0.85700
O1171       O  0.55761494  0.40469835  0.49677584    -0.86100
O1172       O  0.49976529  0.44503929  0.40498491    -0.86400
O1173       O  0.49803684  0.05401930  0.40550973    -0.87700
Zr1174     Zr  0.50212498  0.43170929  0.50082092     2.83100
Zr1175     Zr  0.49955181  0.06840482  0.50124875     2.83500
Zr1176     Zr  0.93319813  0.49997980  0.50175028     2.84100
Zr1177     Zr  0.56976168  0.50019731  0.49871736     2.83400
Zr1178     Zr  0.49997970  0.49974544  0.43276946     2.81300
O1179       O  0.53319605  0.03419533  0.46649493    -1.08300
O1180       O  0.96682118  0.46542223  0.46755872    -1.07800
C1181       C  0.50187932  0.41398247  0.41475798     1.06900
C1182       C  0.49838723  0.08511472  0.41532753     1.09500
C1183       C  0.91618912  0.41381141  0.49937952     1.07000
C1184       C  0.58856591  0.41476707  0.49336291     1.07400
C1185       C  0.58522349  0.08752891  0.49591568     1.07000
C1186       C  0.91307651  0.08495225  0.50416672     1.06500
C1187       C  0.91375141  0.49890776  0.41638293     1.07000
C1188       C  0.58527334  0.49759821  0.41239213     1.06500
H1189       H  0.95121171  0.04787263  0.45326037     0.33100
O1190       O  0.96560380  0.03404122  0.46715810    -1.29400
H1191       H  0.54862987  0.45222945  0.45138547     0.33200
O1192       O  0.53494064  0.46618255  0.46595551    -1.30800
N1193       N  0.74817109  0.00558540  0.30230549    -0.36300
N1194       N  0.69709930  0.00684983  0.24947319    -0.56900
N1195       N  0.74977968  0.00984767  0.19929009    -0.36300
N1196       N  0.80078902  0.00536063  0.25225589    -0.56900
C1197       C  0.71992410  0.99613770  0.31917102     0.27300
C1198       C  0.77496063  0.99522406  0.32073600     0.27300
C1199       C  0.72281888  0.00131680  0.18026737     0.27200
C1200       C  0.77791736  0.00130437  0.18171664     0.27200
C1201       C  0.67729953  0.01258915  0.27664398     0.35900
C1202       C  0.67812769  0.01384431  0.22221094     0.35900
C1203       C  0.81942299  0.01129189  0.28001525     0.35900
C1204       C  0.82022956  0.01416762  0.22556337     0.35900
C1205       C  0.72876763  0.97947155  0.34857189    -0.21600
C1206       C  0.76354215  0.97875899  0.34948165    -0.21600
C1207       C  0.73400113  0.98724878  0.15028544    -0.21600
C1208       C  0.76874217  0.98722050  0.15120390    -0.21600
C1209       C  0.64564029  0.02366616  0.26668368    -0.22700
C1210       C  0.64618549  0.02451329  0.23209875    -0.22700
C1211       C  0.85067481  0.02436556  0.27094568    -0.22700
C1212       C  0.85117256  0.02623156  0.23640764    -0.22700
C1213       C  0.68651508  0.00448945  0.30992394    -0.18000
C1214       C  0.80924676  0.00234200  0.31304470    -0.18000
C1215       C  0.81156649  0.00792867  0.19170436    -0.18000
C1216       C  0.68848883  0.00724522  0.18878598    -0.18000
H1217       H  0.71188556  0.96913728  0.36753517     0.14900
H1218       H  0.77866698  0.96771700  0.36924560     0.14900
H1219       H  0.71875918  0.97787738  0.12984788     0.14900
H1220       H  0.78533731  0.97788205  0.13155936     0.14900
H1221       H  0.62415380  0.02965699  0.28260623     0.13200
H1222       H  0.62524301  0.03137682  0.21609742     0.13200
H1223       H  0.87112277  0.03143959  0.28741167     0.13200
H1224       H  0.87217131  0.03483707  0.22102075     0.13200
H1225       H  0.74894545  0.02171396  0.28156238     0.26400
H1226       H  0.74922596  0.02393500  0.22135975     0.26400
N1227       N  0.75299067  0.30197422  0.48622877    -0.36300
N1228       N  0.70044244  0.25122772  0.48568770    -0.56900
N1229       N  0.75049771  0.19927088  0.49386835    -0.36300
N1230       N  0.80321604  0.24979366  0.49695374    -0.56900
C1231       C  0.72505078  0.32077808  0.49223936     0.27300
C1232       C  0.77980041  0.31984621  0.49718177     0.27300
C1233       C  0.72170445  0.18238510  0.50142028     0.27200
C1234       C  0.77639074  0.18155987  0.50718188     0.27200
C1235       C  0.68312218  0.27842263  0.47472539     0.35900
C1236       C  0.68174719  0.22388009  0.47791566     0.35900
C1237       C  0.82341957  0.27610609  0.48889788     0.35900
C1238       C  0.82210642  0.22166642  0.49310075     0.35900
C1239       C  0.73419158  0.35086156  0.50742403    -0.21600
C1240       C  0.76883330  0.35028142  0.51051736    -0.21600
C1241       C  0.72937870  0.15390841  0.52032502    -0.21600
C1242       C  0.76399315  0.15325298  0.52372275    -0.21600
C1243       C  0.65344412  0.26840086  0.45943600    -0.22700
C1244       C  0.65266273  0.23372053  0.46125882    -0.22700
C1245       C  0.85527142  0.26468913  0.47961877    -0.22700
C1246       C  0.85442260  0.23008205  0.48222161    -0.22700
C1247       C  0.69192625  0.31196876  0.48250894    -0.18000
C1248       C  0.81393727  0.31020795  0.49291217    -0.18000
C1249       C  0.81094608  0.18895999  0.50194924    -0.18000
C1250       C  0.68927797  0.19082245  0.48910694    -0.18000
H1251       H  0.71770034  0.37124576  0.51519444     0.14900
H1252       H  0.78422402  0.37012539  0.52107758     0.14900
H1253       H  0.71195379  0.13515935  0.53006628     0.14900
H1254       H  0.77843864  0.13391757  0.53647787     0.14900
H1255       H  0.63404731  0.28446057  0.44889602     0.13200
H1256       H  0.63256408  0.21771450  0.45219007     0.13200
H1257       H  0.87693363  0.27970579  0.47217032     0.13200
H1258       H  0.87530922  0.21315591  0.47711674     0.13200
H1259       H  0.75413915  0.27995570  0.47199528     0.26400
H1260       H  0.75280424  0.21921750  0.47685701     0.26400
C1261       C  0.86382376  0.39012339  0.47450234    -0.21000
C1262       C  0.89015687  0.38742776  0.49780043    -0.09100
C1263       C  0.89133347  0.36004572  0.02106365     0.29800
C1264       C  0.86589468  0.33575109  0.01954589    -0.21000
C1265       C  0.84054708  0.33668954  0.49409228    -0.09100
C1266       C  0.83931044  0.36484479  0.47243117     0.29800
F1267       F  0.81441132  0.36781449  0.44928490    -0.19600
H1268       H  0.86254889  0.41159407  0.45758677     0.18200
H1269       H  0.86629321  0.31466237  0.03696914     0.18200
F1270       F  0.91590145  0.35698269  0.04455641    -0.19600
C1271       C  0.89220315  0.14097840  0.02303189    -0.21000
C1272       C  0.88611758  0.11061236  0.50513240    -0.09100
C1273       C  0.85755089  0.10740424  0.48454170     0.29800
C1274       C  0.83301016  0.13271547  0.48409930    -0.21000
C1275       C  0.83607365  0.16119078  0.50474389    -0.09100
C1276       C  0.86717426  0.16578792  0.02203155     0.29800
F1277       F  0.86730548  0.19085026  0.04523827    -0.19600
H1278       H  0.91149376  0.14211610  0.04219960     0.18200
H1279       H  0.81184984  0.13045069  0.46711301     0.18200
F1280       F  0.85403816  0.08048918  0.46381844    -0.19600
C1281       C  0.66675798  0.36725078  0.46383850    -0.21000
C1282       C  0.66478423  0.33798147  0.48383317    -0.09100
C1283       C  0.63827065  0.33402343  0.01638607     0.29800
C1284       C  0.61383221  0.35948713  0.01843823    -0.21000
C1285       C  0.61470437  0.38843564  0.48927519    -0.09100
C1286       C  0.64188687  0.39235488  0.46644163     0.29800
F1287       F  0.64393445  0.41993118  0.44611968    -0.19600
H1288       H  0.68762392  0.37061596  0.44632910     0.18200
H1289       H  0.59406165  0.35761304  0.03737199     0.18200
F1290       F  0.63697679  0.30782993  0.03847299    -0.19600
C1291       C  0.64254727  0.10764477  0.47756281    -0.21000
C1292       C  0.61133307  0.11435917  0.49333288    -0.09100
C1293       C  0.61300194  0.13976441  0.01395673     0.29800
C1294       C  0.63808878  0.16451983  0.01230906    -0.21000
C1295       C  0.66210711  0.16462435  0.48959182    -0.09100
C1296       C  0.66745221  0.13263608  0.47515396     0.29800
F1297       F  0.69682389  0.12555819  0.45874279    -0.19600
H1298       H  0.64752387  0.08311759  0.46661577     0.18200
H1299       H  0.63537299  0.18699296  0.02755308     0.18200
F1300       F  0.58597619  0.14487735  0.03439205    -0.19600
C1301       C  0.86455816  0.97988083  0.33525950    -0.21000
C1302       C  0.83536426  0.99967048  0.34012916    -0.09100
C1303       C  0.83524467  0.52303274  0.36797788     0.29800
C1304       C  0.85955378  0.52117451  0.39332750    -0.21000
C1305       C  0.88718115  0.49907520  0.39038172    -0.09100
C1306       C  0.89006693  0.97881711  0.35957541     0.29800
F1307       F  0.91794723  0.95968502  0.35364583    -0.19600
H1308       H  0.86777735  0.96554374  0.31229138     0.18200
H1309       H  0.85727181  0.53764219  0.41490208     0.18200
F1310       F  0.80947936  0.54548774  0.37097606    -0.19600
C1311       C  0.63416578  0.47409175  0.33348549    -0.21000
C1312       C  0.65999183  0.00354169  0.33639307    -0.09100
C1313       C  0.66115025  0.02630100  0.36336149     0.29800
C1314       C  0.63717924  0.02434232  0.38920649    -0.21000
C1315       C  0.61160586  0.49601772  0.38611323    -0.09100
C1316       C  0.60827889  0.47522700  0.35767423     0.29800
F1317       F  0.58042470  0.45567976  0.35357514    -0.19600
H1318       H  0.63143249  0.45789591  0.31176206     0.18200
H1319       H  0.63833002  0.04217340  0.40978495     0.18200
F1320       F  0.68526327  0.05063127  0.36438530    -0.19600
C1321       C  0.61237629  0.47943923  0.14039354    -0.21000
C1322       C  0.61372751  0.99992716  0.11049376    -0.09100
C1323       C  0.64122717  0.02218926  0.10710549     0.29800
C1324       C  0.66508753  0.02478075  0.13277592    -0.21000
C1325       C  0.66239519  0.00472833  0.16191666    -0.09100
C1326       C  0.63728004  0.48010390  0.16520136     0.29800
F1327       F  0.63461471  0.45874268  0.19187825    -0.19600
H1328       H  0.59112188  0.46242462  0.14335897     0.18200
H1329       H  0.68576175  0.04251237  0.12997186     0.18200
F1330       F  0.64434216  0.04232436  0.07953891    -0.19600
C1331       C  0.83604271  0.02720388  0.13653032    -0.21000
C1332       C  0.83886103  0.00717036  0.16560594    -0.09100
C1333       C  0.86777553  0.48370097  0.16745456     0.29800
C1334       C  0.89240149  0.48271956  0.14209192    -0.21000
C1335       C  0.88891953  0.00454030  0.11468489    -0.09100
C1336       C  0.86051673  0.02558405  0.11105177     0.29800
F1337       F  0.85671765  0.04507033  0.08316356    -0.19600
H1338       H  0.81455104  0.04385613  0.13342883     0.18200
H1339       H  0.91296299  0.46479760  0.14408564     0.18200
F1340       F  0.86980499  0.46168290  0.19362021    -0.19600
C1341       C  0.97706639  0.10785131  0.36094235    -0.21000
C1342       C  0.49771817  0.11152345  0.38924175    -0.09100
C1343       C  0.51726586  0.14090320  0.39271525     0.29800
C1344       C  0.51646407  0.16595978  0.36800061    -0.21000
C1345       C  0.49578571  0.16247967  0.33971262    -0.09100
C1346       C  0.97573456  0.13328161  0.33650776     0.29800
F1347       F  0.95510185  0.12927975  0.30967178    -0.19600
H1348       H  0.96158679  0.08550509  0.35803771     0.18200
H1349       H  0.53245751  0.18796412  0.37064401     0.18200
F1350       F  0.53806580  0.14485366  0.41942612    -0.19600
C1351       C  0.52353513  0.33423615  0.36641190    -0.21000
C1352       C  0.50387428  0.33811678  0.33734511    -0.09100
C1353       C  0.98423985  0.36754410  0.33364983     0.29800
C1354       C  0.98421499  0.39230215  0.35864809    -0.21000
C1355       C  0.50302865  0.38791597  0.38817327    -0.09100
C1356       C  0.52304455  0.35876032  0.39169787     0.29800
F1357       F  0.54284782  0.35441108  0.41912135    -0.19600
H1358       H  0.53924233  0.31205111  0.36951286     0.18200
H1359       H  0.96885914  0.41465928  0.35523626     0.18200
F1360       F  0.96473672  0.37217246  0.30605573    -0.19600
C1361       C  0.52599569  0.36091056  0.11153163    -0.21000
C1362       C  0.50244857  0.38732909  0.11412342    -0.09100
C1363       C  0.97963116  0.38770745  0.14144887     0.29800
C1364       C  0.98042858  0.36191220  0.16559597    -0.21000
C1365       C  0.50425989  0.33570181  0.16316128    -0.09100
C1366       C  0.52716949  0.33546883  0.13597455     0.29800
F1367       F  0.55105711  0.31098970  0.13344276    -0.19600
H1368       H  0.54395141  0.36035102  0.09081143     0.18200
H1369       H  0.96250533  0.36236712  0.18634487     0.18200
F1370       F  0.95604645  0.41243734  0.14432926    -0.19600
C1371       C  0.98379333  0.10528769  0.14422783    -0.21000
C1372       C  0.50253518  0.10996816  0.11440142    -0.09100
C1373       C  0.52206701  0.13934860  0.11057367     0.29800
C1374       C  0.52302114  0.16341188  0.13611116    -0.21000
C1375       C  0.50357009  0.15934534  0.16553769    -0.09100
C1376       C  0.98383495  0.12993099  0.16938377     0.29800
F1377       F  0.96413143  0.12528364  0.19713876    -0.19600
H1378       H  0.96843148  0.08289008  0.14769937     0.18200
H1379       H  0.53872188  0.18558373  0.13274482     0.18200
F1380       F  0.54079078  0.14455102  0.08238412    -0.19600
N1381       N  0.51165447  0.24906120  0.80259857    -0.36300
N1382       N  0.51215085  0.30155736  0.75166522    -0.56900
N1383       N  0.51456068  0.25068589  0.69968448    -0.36300
N1384       N  0.51144210  0.19828289  0.75067681    -0.56900
C1385       C  0.50198383  0.27630490  0.82071169     0.27300
C1386       C  0.50204788  0.22130520  0.82012382     0.27300
C1387       C  0.50529895  0.27853009  0.68224891     0.27200
C1388       C  0.50475102  0.22354634  0.68163903     0.27200
C1389       C  0.51887248  0.31999404  0.77933686     0.35900
C1390       C  0.52080712  0.32082078  0.72483773     0.35900
C1391       C  0.51828566  0.17877695  0.77769399     0.35900
C1392       C  0.51936723  0.17974973  0.72330277     0.35900
C1393       C  0.48585860  0.26575995  0.85002459    -0.21600
C1394       C  0.48589488  0.23099102  0.84965289    -0.21600
C1395       C  0.48902193  0.26894861  0.65298325    -0.21600
C1396       C  0.48888266  0.23419200  0.65250458    -0.21600
C1397       C  0.53240061  0.35097629  0.77013591    -0.22700
C1398       C  0.53374128  0.35146511  0.73552257    -0.22700
C1399       C  0.53112082  0.14785912  0.76748148    -0.22700
C1400       C  0.53176575  0.14846891  0.73289941    -0.22700
C1401       C  0.50968290  0.31020404  0.81237722    -0.18000
C1402       C  0.50981286  0.18766673  0.81105781    -0.18000
C1403       C  0.51175644  0.18958844  0.69009401    -0.18000
C1404       C  0.51347305  0.31209857  0.69119544    -0.18000
H1405       H  0.47548399  0.28146326  0.86980470     0.14900
H1406       H  0.47552375  0.21471556  0.86907352     0.14900
H1407       H  0.47863236  0.28526945  0.63376948     0.14900
H1408       H  0.47841658  0.21855335  0.63289287     0.14900
H1409       H  0.53986931  0.37131380  0.78660441     0.13200
H1410       H  0.54247157  0.37227967  0.72004171     0.13200
H1411       H  0.53849551  0.12681633  0.78324018     0.13200
H1412       H  0.53966000  0.12798516  0.71668103     0.13200
H1413       H  0.52748754  0.24936413  0.78153970     0.26400
H1414       H  0.53012988  0.25021307  0.72071221     0.26400
O1415       O  0.50396309  0.09659845  0.55594194    -0.86200
O1416       O  0.50502653  0.40440626  0.55607046    -0.86400
O1417       O  0.94467282  0.00112437  0.59667278    -0.88100
O1418       O  0.55546026  0.99968500  0.59581878    -0.86800
O1419       O  0.59848436  0.49910101  0.55298944    -0.86400
O1420       O  0.90643803  0.50405378  0.55722077    -0.87800
O1421       O  0.50259504  0.44548172  0.59663083    -0.86200
O1422       O  0.50142700  0.05586183  0.59713927    -0.85800
Zr1423     Zr  0.50261499  0.49987190  0.56838770     2.84300
O1424       O  0.53676406  0.46576111  0.53398154    -1.07800
O1425       O  0.96535942  0.03443756  0.53548103    -1.08500
C1426       C  0.50370453  0.08684244  0.58706891     1.06900
C1427       C  0.50437529  0.41445396  0.58703323     1.06800
C1428       C  0.91359055  0.00107089  0.58682090     1.09800
C1429       C  0.58649505  0.00083921  0.58549825     1.07600
H1430       H  0.95371626  0.45152333  0.54976147     0.33200
O1431       O  0.96769754  0.46555783  0.53542509    -1.28800
H1432       H  0.54881336  0.04923741  0.54836114     0.32800
O1433       O  0.53445975  0.03508153  0.53486327    -1.30400
O1434       O  0.50394064  0.40290673  0.94731561    -0.86200
O1435       O  0.50472525  0.09541424  0.94630040    -0.87700
O1436       O  0.90685419  0.44469698  0.99984950    -0.86300
O1437       O  0.59872720  0.44512144  0.99756238    -0.86300
O1438       O  0.59856376  0.05237215  0.99619429    -0.86000
O1439       O  0.90645271  0.05700266  0.00094806    -0.85900
O1440       O  0.94639590  0.49665384  0.90524260    -0.86200
O1441       O  0.55535592  0.49890477  0.90451856    -0.85700
O1442       O  0.90562678  0.49918255  0.94650762    -0.86800
O1443       O  0.59676283  0.50220331  0.94460275    -0.85900
O1444       O  0.94798392  0.40366324  0.00188740    -0.86300
O1445       O  0.94843962  0.09713465  0.00263299    -0.86000
O1446       O  0.55829254  0.09396331  0.99935564    -0.85700
O1447       O  0.55800947  0.40394464  0.00162910    -0.86100
O1448       O  0.50079020  0.44342571  0.90599269    -0.86400
O1449       O  0.49923502  0.05481724  0.90557758    -0.87700
Zr1450     Zr  0.50274262  0.43138122  0.00186816     2.83100
Zr1451     Zr  0.50219640  0.06773938  0.00130508     2.83500
Zr1452     Zr  0.93363008  0.49974856  0.00125666     2.84100
Zr1453     Zr  0.57010763  0.49985667  0.00009474     2.83400
Zr1454     Zr  0.50103323  0.49862911  0.93314359     2.81300
O1455       O  0.53372434  0.03285697  0.96603025    -1.08300
O1456       O  0.96764945  0.46468228  0.96796500    -1.07800
C1457       C  0.50269824  0.41246761  0.91618482     1.06900
C1458       C  0.50282806  0.08564442  0.91534931     1.09500
C1459       C  0.91698368  0.41373271  0.00045443     1.07000
C1460       C  0.58899370  0.41396812  0.99891293     1.07400
C1461       C  0.58927450  0.08364176  0.99704530     1.07000
C1462       C  0.91725630  0.08775362  0.00151601     1.06500
C1463       C  0.91530883  0.49762925  0.91536723     1.07000
C1464       C  0.58642444  0.50089014  0.91387158     1.06500
H1465       H  0.95210424  0.04981827  0.95394928     0.33100
O1466       O  0.96585673  0.03526926  0.96775734    -1.29400
H1467       H  0.55032598  0.45126715  0.95254151     0.33200
O1468       O  0.53622093  0.46524072  0.96673060    -1.30800
N1469       N  0.74717308  0.01170488  0.80179110    -0.36300
N1470       N  0.69628212  0.00822482  0.74936037    -0.56900
N1471       N  0.74892492  0.00514708  0.69914000    -0.36300
N1472       N  0.79992348  0.00522614  0.75150259    -0.56900
C1473       C  0.71880492  0.00471691  0.81967864     0.27300
C1474       C  0.77384337  0.00245466  0.82091448     0.27300
C1475       C  0.72181636  0.99552284  0.68102275     0.27200
C1476       C  0.77680121  0.99544415  0.68189355     0.27200
C1477       C  0.67688937  0.01800839  0.77561083     0.35900
C1478       C  0.67770533  0.01341666  0.72147937     0.35900
C1479       C  0.81838211  0.01389876  0.77865923     0.35900
C1480       C  0.81905949  0.01254390  0.72410400     0.35900
C1481       C  0.72749725  0.99074159  0.85048097    -0.21600
C1482       C  0.76224857  0.98923803  0.85121966    -0.21600
C1483       C  0.73253841  0.97926013  0.65200275    -0.21600
C1484       C  0.76730948  0.97913808  0.65257734    -0.21600
C1485       C  0.64592162  0.02978358  0.76437853    -0.22700
C1486       C  0.64642933  0.02682802  0.72997177    -0.22700
C1487       C  0.84928422  0.02697094  0.76852372    -0.22700
C1488       C  0.84958890  0.02644547  0.73391443    -0.22700
C1489       C  0.68548945  0.01256008  0.80954672    -0.18000
C1490       C  0.80822201  0.00798317  0.81237208    -0.18000
C1491       C  0.81031954  0.00378121  0.69076248    -0.18000
C1492       C  0.68790758  0.00356003  0.68890971    -0.18000
H1493       H  0.71058841  0.98263072  0.87046137     0.14900
H1494       H  0.77723952  0.97980125  0.87188057     0.14900
H1495       H  0.71695968  0.96900511  0.63223908     0.14900
H1496       H  0.78369743  0.96870052  0.63331749     0.14900
H1497       H  0.62490122  0.03882872  0.77944097     0.13200
H1498       H  0.62596022  0.03330306  0.71322714     0.13200
H1499       H  0.86946053  0.03593169  0.78440111     0.13200
H1500       H  0.87017484  0.03481213  0.71785810     0.13200
H1501       H  0.74826490  0.02552721  0.77947200     0.26400
H1502       H  0.74861825  0.02124000  0.71979179     0.26400
N1503       N  0.75281216  0.30166627  0.99023723    -0.36300
N1504       N  0.70157810  0.24878512  0.99078299    -0.56900
N1505       N  0.75400709  0.19820532  0.99085152    -0.36300
N1506       N  0.80508460  0.25105288  0.99401075    -0.56900
C1507       C  0.72475733  0.31968162  0.99778846     0.27300
C1508       C  0.77974967  0.32071030  0.99883236     0.27300
C1509       C  0.72653957  0.17910621  0.99811087     0.27200
C1510       C  0.78143995  0.18063519  0.00088962     0.27200
C1511       C  0.68225846  0.27599410  0.98357626     0.35900
C1512       C  0.68302556  0.22125211  0.98297602     0.35900
C1513       C  0.82437162  0.27839532  0.98749578     0.35900
C1514       C  0.82501319  0.22399036  0.98857166     0.35900
C1515       C  0.73398807  0.35059938  0.01122538    -0.21600
C1516       C  0.76872921  0.35125066  0.01186084    -0.21600
C1517       C  0.73667522  0.14906593  0.01298694    -0.21600
C1518       C  0.77137505  0.14999324  0.01464357    -0.21600
C1519       C  0.65136351  0.26575575  0.97101960    -0.22700
C1520       C  0.65189889  0.23106058  0.97049544    -0.22700
C1521       C  0.85665000  0.26868953  0.97769081    -0.22700
C1522       C  0.85706914  0.23409657  0.97841777    -0.22700
C1523       C  0.69122156  0.30975527  0.99075629    -0.18000
C1524       C  0.81394372  0.31184772  0.99340035    -0.18000
C1525       C  0.81535021  0.19052465  0.99559084    -0.18000
C1526       C  0.69283446  0.18755973  0.98993023    -0.18000
H1527       H  0.71744369  0.37075478  0.01947589     0.14900
H1528       H  0.78409807  0.37194976  0.02071074     0.14900
H1529       H  0.72078820  0.12849180  0.02157249     0.14900
H1530       H  0.78739590  0.13023121  0.02458417     0.14900
H1531       H  0.63050847  0.28163591  0.96335560     0.13200
H1532       H  0.63150969  0.21491662  0.96233029     0.13200
H1533       H  0.87782181  0.28481489  0.97123092     0.13200
H1534       H  0.87862941  0.21824386  0.97265825     0.13200
H1535       H  0.75356004  0.27937268  0.97650054     0.26400
H1536       H  0.75432229  0.22011033  0.97632742     0.26400
C1537       C  0.86486425  0.39076209  0.97532894    -0.21000
C1538       C  0.89079612  0.38776683  0.99900648    -0.09100
C1539       C  0.89152181  0.35929698  0.51933865     0.29800
C1540       C  0.86675616  0.33426456  0.51761344    -0.21000
C1541       C  0.84017358  0.33843297  0.99550784    -0.09100
C1542       C  0.83988295  0.36607003  0.97328290     0.29800
F1543       F  0.81569332  0.36889112  0.94940237    -0.19600
H1544       H  0.86436707  0.41193769  0.95799767     0.18200
H1545       H  0.86780215  0.31306972  0.53487113     0.18200
F1546       F  0.91613664  0.35667299  0.54281689    -0.19600
C1547       C  0.88877481  0.13863554  0.52647826    -0.21000
C1548       C  0.89173355  0.11433471  0.99994453    -0.09100
C1549       C  0.86666169  0.11316509  0.97522193     0.29800
C1550       C  0.84200894  0.13816941  0.97386907    -0.21000
C1551       C  0.84193842  0.16442885  0.99735752    -0.09100
C1552       C  0.86364173  0.16348408  0.52676177     0.29800
F1553       F  0.86631076  0.18987192  0.54827782    -0.19600
H1554       H  0.91019665  0.14112068  0.54310394     0.18200
H1555       H  0.82292553  0.13714757  0.95448981     0.18200
F1556       F  0.86663389  0.08833199  0.95186177    -0.19600
C1557       C  0.66532579  0.36365927  0.97000957    -0.21000
C1558       C  0.66423274  0.33592952  0.99211063    -0.09100
C1559       C  0.63722587  0.33387456  0.50600386     0.29800
C1560       C  0.61238530  0.35876825  0.50848252    -0.21000
C1561       C  0.61522260  0.38750527  0.99672139    -0.09100
C1562       C  0.64112863  0.38934993  0.97232486     0.29800
F1563       F  0.64243159  0.41543632  0.95010318    -0.19600
H1564       H  0.68509971  0.36541211  0.95106900     0.18200
H1565       H  0.59164415  0.35521060  0.52610153     0.18200
F1566       F  0.63477519  0.30605405  0.52589569    -0.19600
C1567       C  0.64481742  0.10540219  0.97469270    -0.21000
C1568       C  0.61610879  0.10980498  0.99533090    -0.09100
C1569       C  0.60551620  0.14684998  0.50652991     0.29800
C1570       C  0.63090499  0.17135756  0.50527867    -0.21000
C1571       C  0.66640063  0.16057838  0.99120444    -0.09100
C1572       C  0.66948975  0.13076365  0.97216160     0.29800
F1573       F  0.69615804  0.12636519  0.95090778    -0.19600
H1574       H  0.64775197  0.08266037  0.95992878     0.18200
H1575       H  0.62622148  0.19570963  0.51673450     0.18200
F1576       F  0.57557726  0.15485715  0.52131555    -0.19600
C1577       C  0.86213794  0.98446666  0.83637317    -0.21000
C1578       C  0.83445233  0.00653682  0.83941987    -0.09100
C1579       C  0.83455951  0.51928364  0.86948481     0.29800
C1580       C  0.85927151  0.51709743  0.89436960    -0.21000
C1581       C  0.88866442  0.49783885  0.88930094    -0.09100
C1582       C  0.88684778  0.98278539  0.86143951     0.29800
F1583       F  0.91283917  0.96076926  0.85768259    -0.19600
H1584       H  0.86453601  0.96836324  0.81450564     0.18200
H1585       H  0.85588286  0.53136430  0.91731032     0.18200
F1586       F  0.80756576  0.53984568  0.87459144    -0.19600
C1587       C  0.63522073  0.47999501  0.83469386    -0.21000
C1588       C  0.65801056  0.01211760  0.83516106    -0.09100
C1589       C  0.65936862  0.03308203  0.86357136     0.29800
C1590       C  0.63465610  0.03040309  0.88869971    -0.21000
C1591       C  0.61223698  0.50159244  0.88716813    -0.09100
C1592       C  0.61009480  0.47963736  0.85955175     0.29800
F1593       F  0.58424486  0.45725261  0.85712170    -0.19600
H1594       H  0.63367657  0.46244653  0.81391366     0.18200
H1595       H  0.63631560  0.04631023  0.91072405     0.18200
F1596       F  0.68473817  0.05583728  0.86706800    -0.19600
C1597       C  0.61251763  0.47866661  0.63932711    -0.21000
C1598       C  0.61288124  0.00089006  0.61137520    -0.09100
C1599       C  0.64182359  0.02120199  0.60767328     0.29800
C1600       C  0.66605399  0.02192745  0.63299467    -0.21000
C1601       C  0.66224402  0.00183118  0.66191477    -0.09100
C1602       C  0.63709087  0.47998234  0.66449284     0.29800
F1603       F  0.63373822  0.45955717  0.69182470    -0.19600
H1604       H  0.59110680  0.46187734  0.64251017     0.18200
H1605       H  0.68778473  0.03835940  0.63019402     0.18200
F1606       F  0.64617040  0.04112608  0.58011012    -0.19600
C1607       C  0.83211314  0.02028411  0.63355059    -0.21000
C1608       C  0.83704860  0.00298709  0.66408113    -0.09100
C1609       C  0.86605169  0.48733167  0.66684875     0.29800
C1610       C  0.89089380  0.48504182  0.64177774    -0.21000
C1611       C  0.88703113  0.00163448  0.61306135    -0.09100
C1612       C  0.85651312  0.01911609  0.60798282     0.29800
F1613       F  0.85058817  0.03576306  0.57868019    -0.19600
H1614       H  0.80915498  0.03459567  0.62946891     0.18200
H1615       H  0.90934587  0.46486249  0.64296366     0.18200
F1616       F  0.86535861  0.46397095  0.69191064    -0.19600
C1617       C  0.98570578  0.10816264  0.85939157    -0.21000
C1618       C  0.50485693  0.11169484  0.88878824    -0.09100
C1619       C  0.52618973  0.13985454  0.89212650     0.29800
C1620       C  0.52799320  0.16410702  0.86655690    -0.21000
C1621       C  0.50835443  0.16093172  0.83745621    -0.09100
C1622       C  0.98712465  0.13267787  0.83405982     0.29800
F1623       F  0.96739906  0.12904907  0.80650665    -0.19600
H1624       H  0.96910470  0.08666531  0.85631482     0.18200
H1625       H  0.54472931  0.18552307  0.86943503     0.18200
F1626       F  0.54598892  0.14346181  0.91963065    -0.19600
C1627       C  0.52744673  0.33358247  0.86804534    -0.21000
C1628       C  0.50742589  0.33639273  0.83915399    -0.09100
C1629       C  0.98542295  0.36411780  0.83598636     0.29800
C1630       C  0.98404354  0.38882768  0.86106801    -0.21000
C1631       C  0.50400204  0.38596199  0.89003945    -0.09100
C1632       C  0.52571558  0.35801775  0.89334756     0.29800
F1633       F  0.54619863  0.35498679  0.92043626    -0.19600
H1634       H  0.54467762  0.31250906  0.87081563     0.18200
H1635       H  0.96705214  0.41004232  0.85806255     0.18200
F1636       F  0.96511089  0.36710504  0.80875372    -0.19600
C1637       C  0.52563507  0.35919284  0.60830687    -0.21000
C1638       C  0.50640969  0.38847894  0.61371689    -0.09100
C1639       C  0.99024557  0.39304732  0.64508393     0.29800
C1640       C  0.99270325  0.36827894  0.67009508    -0.21000
C1641       C  0.51213492  0.33902383  0.66479435    -0.09100
C1642       C  0.52899371  0.33497662  0.63370776     0.29800
F1643       F  0.54870456  0.30752760  0.62786082    -0.19600
H1644       H  0.53873899  0.35538466  0.58457776     0.18200
H1645       H  0.97912725  0.37180243  0.69359993     0.18200
F1646       F  0.97134075  0.42099516  0.65130850    -0.19600
C1647       C  0.98547228  0.11111113  0.64217947    -0.21000
C1648       C  0.50613168  0.11310083  0.61334976    -0.09100
C1649       C  0.52903590  0.14012275  0.61014645     0.29800
C1650       C  0.53067555  0.16495628  0.63505883    -0.21000
C1651       C  0.50960435  0.16321853  0.66358412    -0.09100
C1652       C  0.98689287  0.13607791  0.66693393     0.29800
F1653       F  0.96585754  0.13395175  0.69401373    -0.19600
H1654       H  0.96772835  0.09048496  0.64521779     0.18200
H1655       H  0.54865290  0.18542444  0.63231372     0.18200
F1656       F  0.55069802  0.14183348  0.58360495    -0.19600
N1657       N  0.50597523  0.74849370  0.30264192    -0.36300
N1658       N  0.51011291  0.80030046  0.25186582    -0.56900
N1659       N  0.50906834  0.74893454  0.19980806    -0.36300
N1660       N  0.50180167  0.69708858  0.25069710    -0.56900
C1661       C  0.49755764  0.77622467  0.32066181     0.27300
C1662       C  0.49438157  0.72133767  0.31983881     0.27300
C1663       C  0.50267607  0.77728680  0.18188622     0.27200
C1664       C  0.49793905  0.72244686  0.18150821     0.27200
C1665       C  0.51778291  0.81852225  0.27950368     0.35900
C1666       C  0.52007673  0.81875528  0.22489444     0.35900
C1667       C  0.50904187  0.67794857  0.27783065     0.35900
C1668       C  0.50905233  0.67803669  0.22349542     0.35900
C1669       C  0.47997166  0.76655249  0.34946049    -0.21600
C1670       C  0.47804233  0.73183952  0.34897626    -0.21600
C1671       C  0.48709284  0.76868883  0.15193212    -0.21600
C1672       C  0.48422083  0.73404728  0.15165917    -0.21600
C1673       C  0.53335185  0.84846733  0.27007727    -0.22700
C1674       C  0.53469849  0.84866682  0.23542792    -0.22700
C1675       C  0.52150897  0.64678218  0.26783758    -0.22700
C1676       C  0.52123826  0.64674838  0.23327713    -0.22700
C1677       C  0.50760517  0.80961428  0.31262233    -0.18000
C1678       C  0.50114434  0.68742720  0.31114373    -0.18000
C1679       C  0.50237365  0.68808251  0.19018717    -0.18000
C1680       C  0.51248874  0.81035939  0.19117577    -0.18000
H1681       H  0.46993385  0.78274062  0.36901368     0.14900
H1682       H  0.46636365  0.71609993  0.36810665     0.14900
H1683       H  0.47886417  0.78555347  0.13214537     0.14900
H1684       H  0.47351131  0.71909164  0.13165206     0.14900
H1685       H  0.54206262  0.86841659  0.28639835     0.13200
H1686       H  0.54459403  0.86882545  0.21976931     0.13200
H1687       H  0.52935184  0.62601677  0.28373074     0.13200
H1688       H  0.52892454  0.62605875  0.21722366     0.13200
H1689       H  0.52237417  0.74774305  0.28201570     0.26400
H1690       H  0.52368351  0.74749949  0.22145306     0.26400
O1691       O  0.50175082  0.59540789  0.05565125    -0.86200
O1692       O  0.50278630  0.90326476  0.05611469    -0.86400
O1693       O  0.94710154  0.50047403  0.09689341    -0.88100
O1694       O  0.55751631  0.49826585  0.09599647    -0.86800
O1695       O  0.59689050  0.99902002  0.05331450    -0.86400
O1696       O  0.90470208  0.00351153  0.05716373    -0.87800
O1697       O  0.50118344  0.94415464  0.09683674    -0.86200
O1698       O  0.50016000  0.55447156  0.09675102    -0.85800
Zr1699     Zr  0.50089022  0.99881578  0.06860061     2.84300
O1700       O  0.53486293  0.96471774  0.03419239    -1.07800
O1701       O  0.96760118  0.53355228  0.03525339    -1.08500
C1702       C  0.50073415  0.58553606  0.08671184     1.06900
C1703       C  0.50274548  0.91311061  0.08715091     1.06800
C1704       C  0.91606371  0.50233645  0.08724986     1.09800
C1705       C  0.58860775  0.49932447  0.08567930     1.07600
H1706       H  0.95116391  0.95167063  0.04983937     0.33200
O1707       O  0.96530845  0.96563346  0.03558490    -1.28800
H1708       H  0.55020986  0.54820522  0.04839958     0.32800
O1709       O  0.53611072  0.53402059  0.03465058    -1.30400
O1710       O  0.50266569  0.90295939  0.44832353    -0.86200
O1711       O  0.50127319  0.59548633  0.44605964    -0.87700
O1712       O  0.90459070  0.94491286  0.49871663    -0.86300
O1713       O  0.59665679  0.94631968  0.49913204    -0.86300
O1714       O  0.59782776  0.55492936  0.49594088    -0.86000
O1715       O  0.90513455  0.55474908  0.50201082    -0.85900
O1716       O  0.94453033  0.99589830  0.40552129    -0.86200
O1717       O  0.55421901  0.99826199  0.40513884    -0.85700
O1718       O  0.90393075  0.99933049  0.44686247    -0.86800
O1719       O  0.59561748  0.00140172  0.44526090    -0.85900
O1720       O  0.94596724  0.90428046  0.50192773    -0.86300
O1721       O  0.94609104  0.59573855  0.50471402    -0.86000
O1722       O  0.55667473  0.59571220  0.49964941    -0.85700
O1723       O  0.55614354  0.90488143  0.50222124    -0.86100
O1724       O  0.50018433  0.94333829  0.40682901    -0.86400
O1725       O  0.49949627  0.55456125  0.40524823    -0.87700
Zr1726     Zr  0.50098453  0.93195123  0.50270527     2.83100
Zr1727     Zr  0.50145786  0.56817742  0.50097709     2.83500
Zr1728     Zr  0.93213044  0.99959216  0.50145794     2.84100
Zr1729     Zr  0.56823912  0.00110145  0.50022285     2.83400
Zr1730     Zr  0.49939415  0.99900323  0.43334904     2.81300
O1731       O  0.53480390  0.53426900  0.46559888    -1.08300
O1732       O  0.96620306  0.96482076  0.46820039    -1.07800
C1733       C  0.50190009  0.91234514  0.41709575     1.06900
C1734       C  0.50036310  0.58555064  0.41515213     1.09500
C1735       C  0.91488146  0.91402112  0.49968025     1.07000
C1736       C  0.58707219  0.91511869  0.50012605     1.07400
C1737       C  0.58780292  0.58593176  0.49743013     1.07000
C1738       C  0.91494898  0.58576898  0.50404551     1.06500
C1739       C  0.91343192  0.99716096  0.41572132     1.07000
C1740       C  0.58533475  0.99976391  0.41456414     1.06500
H1741       H  0.95229924  0.54860130  0.45351345     0.33100
O1742       O  0.96662438  0.53448315  0.46720715    -1.29400
H1743       H  0.54851089  0.95192516  0.45348905     0.33200
O1744       O  0.53431977  0.96599882  0.46748949    -1.30800
N1745       N  0.75078614  0.50098557  0.30201040    -0.36300
N1746       N  0.69975186  0.49972785  0.24962365    -0.56900
N1747       N  0.75215272  0.50758049  0.19940474    -0.36300
N1748       N  0.80317490  0.50592083  0.25197098    -0.56900
C1749       C  0.72352377  0.48912794  0.31899464     0.27300
C1750       C  0.77837076  0.49357491  0.32055483     0.27300
C1751       C  0.72541084  0.49839085  0.18046316     0.27200
C1752       C  0.78040451  0.49959152  0.18180067     0.27200
C1753       C  0.68006448  0.50441147  0.27709839     0.35900
C1754       C  0.68098673  0.50891171  0.22284733     0.35900
C1755       C  0.82163606  0.51268066  0.27958718     0.35900
C1756       C  0.82251657  0.51437970  0.22514084     0.35900
C1757       C  0.73390418  0.47372630  0.34858381    -0.21600
C1758       C  0.76856771  0.47665310  0.34962580    -0.21600
C1759       C  0.73676276  0.48437649  0.15054225    -0.21600
C1760       C  0.77151280  0.48505686  0.15141146    -0.21600
C1761       C  0.64874420  0.51694678  0.26778155    -0.22700
C1762       C  0.64936529  0.51985583  0.23333388    -0.22700
C1763       C  0.85275604  0.52597012  0.27030262    -0.22700
C1764       C  0.85334071  0.52698982  0.23569340    -0.22700
C1765       C  0.68952056  0.49536447  0.31010678    -0.18000
C1766       C  0.81181582  0.50355370  0.31261930    -0.18000
C1767       C  0.81382005  0.50731831  0.19151981    -0.18000
C1768       C  0.69113688  0.50389610  0.18911803    -0.18000
H1769       H  0.71805911  0.46231996  0.36781615     0.14900
H1770       H  0.78465568  0.46771107  0.36968090     0.14900
H1771       H  0.72161343  0.47464051  0.13020649     0.14900
H1772       H  0.78831593  0.47606748  0.13177227     0.14900
H1773       H  0.62755735  0.52313365  0.28400730     0.13200
H1774       H  0.62872717  0.52843889  0.21776372     0.13200
H1775       H  0.87318688  0.53330318  0.28668764     0.13200
H1776       H  0.87431576  0.53526614  0.22008699     0.13200
H1777       H  0.75014967  0.51704432  0.28123762     0.26400
H1778       H  0.75114571  0.52185473  0.22135771     0.26400
N1779       N  0.75125504  0.80189166  0.49418805    -0.36300
N1780       N  0.69952527  0.75052137  0.49603403    -0.56900
N1781       N  0.75120464  0.69922529  0.50226690    -0.36300
N1782       N  0.80295334  0.75035214  0.50373499    -0.56900
C1783       C  0.72345677  0.82058980  0.50121305     0.27300
C1784       C  0.77846468  0.82054700  0.50260168     0.27300
C1785       C  0.72288407  0.68140479  0.50919768     0.27200
C1786       C  0.77760799  0.68149180  0.51456517     0.27200
C1787       C  0.68102630  0.77749391  0.48647648     0.35900
C1788       C  0.68131688  0.72289709  0.48815228     0.35900
C1789       C  0.82237417  0.77683234  0.49438635     0.35900
C1790       C  0.82241691  0.72253473  0.50011758     0.35900
C1791       C  0.73321596  0.85140991  0.51452101    -0.21600
C1792       C  0.76799365  0.85148782  0.51509701    -0.21600
C1793       C  0.73124800  0.65218597  0.52658111    -0.21600
C1794       C  0.76590240  0.65225201  0.52998538    -0.21600
C1795       C  0.65098677  0.76700926  0.47216466    -0.22700
C1796       C  0.65118252  0.73229977  0.47319930    -0.22700
C1797       C  0.85431090  0.76587348  0.48489210    -0.22700
C1798       C  0.85431820  0.73139663  0.48844209    -0.22700
C1799       C  0.68983821  0.81123226  0.49361128    -0.18000
C1800       C  0.81242948  0.81088785  0.49731730    -0.18000
C1801       C  0.81197769  0.68953812  0.50883209    -0.18000
C1802       C  0.69028113  0.68970988  0.49753482    -0.18000
H1803       H  0.71705511  0.87191851  0.52263770     0.14900
H1804       H  0.78377058  0.87198890  0.52369390     0.14900
H1805       H  0.71423790  0.63254255  0.53523609     0.14900
H1806       H  0.78086373  0.63264176  0.54169348     0.14900
H1807       H  0.63084793  0.78272972  0.46253937     0.13200
H1808       H  0.63115835  0.71590784  0.46462919     0.13200
H1809       H  0.87546282  0.78114794  0.47653830     0.13200
H1810       H  0.87543637  0.71484114  0.48310907     0.13200
H1811       H  0.75193773  0.77932382  0.48084798     0.26400
H1812       H  0.75277379  0.71977664  0.48593832     0.26400
C1813       C  0.86385298  0.88837828  0.47378600    -0.21000
C1814       C  0.88894474  0.88761515  0.49857758    -0.09100
C1815       C  0.88831436  0.85995540  0.01839607     0.29800
C1816       C  0.86387040  0.83474836  0.01550928    -0.21000
C1817       C  0.83894081  0.83734095  0.49722302    -0.09100
C1818       C  0.83921092  0.86309748  0.47278160     0.29800
F1819       F  0.81594859  0.86346254  0.44783643    -0.19600
H1820       H  0.86373924  0.90820769  0.45493145     0.18200
H1821       H  0.86465080  0.81323331  0.03238789     0.18200
F1822       F  0.91259443  0.85673490  0.04214481    -0.19600
C1823       C  0.88949487  0.63874241  0.02299575    -0.21000
C1824       C  0.88829167  0.61187092  0.50588507    -0.09100
C1825       C  0.85948813  0.60983553  0.48545990     0.29800
C1826       C  0.83450326  0.63474017  0.48721876    -0.21000
C1827       C  0.83757241  0.66193364  0.50953571    -0.09100
C1828       C  0.86411238  0.66342111  0.02337543     0.29800
F1829       F  0.86561269  0.68880064  0.04616698    -0.19600
H1830       H  0.91005219  0.64049934  0.04074995     0.18200
H1831       H  0.81301307  0.63325503  0.47055595     0.18200
F1832       F  0.85614564  0.58452419  0.46281403    -0.19600
C1833       C  0.66634059  0.86727647  0.47538987    -0.21000
C1834       C  0.66282462  0.83751123  0.49444980    -0.09100
C1835       C  0.63387037  0.83160788  0.00956587     0.29800
C1836       C  0.60856286  0.85622582  0.01122134    -0.21000
C1837       C  0.61342929  0.88881349  0.49829433    -0.09100
C1838       C  0.64213278  0.89292909  0.47757252     0.29800
F1839       F  0.64636208  0.92133675  0.45879273    -0.19600
H1840       H  0.68812569  0.87075010  0.45906068     0.18200
H1841       H  0.58742053  0.85260021  0.02835050     0.18200
F1842       F  0.63131953  0.80383301  0.02954173    -0.19600
C1843       C  0.64208242  0.61007797  0.47532581    -0.21000
C1844       C  0.61404599  0.61240216  0.49711427    -0.09100
C1845       C  0.60766758  0.64444736  0.00918565     0.29800
C1846       C  0.63278619  0.66908154  0.00770668    -0.21000
C1847       C  0.66402831  0.66300862  0.49697047    -0.09100
C1848       C  0.66680311  0.63537984  0.47500699     0.29800
F1849       F  0.69314248  0.63320907  0.45302542    -0.19600
H1850       H  0.64452237  0.58896796  0.45821337     0.18200
H1851       H  0.62843189  0.69306442  0.02003167     0.18200
F1852       F  0.57828897  0.65171091  0.02541190    -0.19600
C1853       C  0.86511490  0.47969784  0.33678009    -0.21000
C1854       C  0.83785886  0.50226385  0.33946269    -0.09100
C1855       C  0.83170273  0.01747062  0.37054861     0.29800
C1856       C  0.85675931  0.01570975  0.39518679    -0.21000
C1857       C  0.88646880  0.99694092  0.38984455    -0.09100
C1858       C  0.88968767  0.47818271  0.36188417     0.29800
F1859       F  0.91546112  0.45578291  0.35866896    -0.19600
H1860       H  0.86726683  0.46320073  0.31517996     0.18200
H1861       H  0.85335557  0.02995461  0.41816385     0.18200
F1862       F  0.80428640  0.03734745  0.37611987    -0.19600
C1863       C  0.63429723  0.97917362  0.33532396    -0.21000
C1864       C  0.66312838  0.49433188  0.33692197    -0.09100
C1865       C  0.66625881  0.51497141  0.36539113     0.29800
C1866       C  0.64097041  0.51536529  0.38991851    -0.21000
C1867       C  0.61126645  0.00026211  0.38800155    -0.09100
C1868       C  0.60987841  0.97763183  0.36087494     0.29800
F1869       F  0.58547086  0.95358943  0.35957594    -0.19600
H1870       H  0.63336352  0.96128584  0.31479177     0.18200
H1871       H  0.64393590  0.53160924  0.41157764     0.18200
F1872       F  0.69342513  0.53550743  0.36902124    -0.19600
C1873       C  0.61084902  0.98002293  0.13967413    -0.21000
C1874       C  0.61522732  0.49993064  0.11161275    -0.09100
C1875       C  0.64347935  0.52126170  0.10807763     0.29800
C1876       C  0.66778811  0.52276905  0.13344202    -0.21000
C1877       C  0.66492843  0.50232480  0.16229577    -0.09100
C1878       C  0.63518875  0.98196212  0.16494499     0.29800
F1879       F  0.63231174  0.96140849  0.19222260    -0.19600
H1880       H  0.58991035  0.96262354  0.14269169     0.18200
H1881       H  0.68892400  0.53994820  0.13060687     0.18200
F1882       F  0.64706030  0.54138664  0.08055755    -0.19600
C1883       C  0.83881162  0.52845226  0.13744915    -0.21000
C1884       C  0.84083355  0.50673974  0.16535782    -0.09100
C1885       C  0.86713715  0.98586568  0.16907327     0.29800
C1886       C  0.89218859  0.98507234  0.14407026    -0.21000
C1887       C  0.89005626  0.50401064  0.11389693    -0.09100
C1888       C  0.86306663  0.52698549  0.11174233     0.29800
F1889       F  0.86063021  0.54855215  0.08524840    -0.19600
H1890       H  0.81821173  0.54636944  0.13553256     0.18200
H1891       H  0.91372253  0.96849130  0.14723150     0.18200
F1892       F  0.87017394  0.96531410  0.19629431    -0.19600
C1893       C  0.98127924  0.60694151  0.35956378    -0.21000
C1894       C  0.50017388  0.61175185  0.38890754    -0.09100
C1895       C  0.51884702  0.64162166  0.39279769     0.29800
C1896       C  0.51917767  0.66587231  0.36730360    -0.21000
C1897       C  0.50017299  0.66123739  0.33799398    -0.09100
C1898       C  0.98073860  0.63171254  0.33452899     0.29800
F1899       F  0.96114512  0.62690770  0.30705927    -0.19600
H1900       H  0.96640539  0.58423846  0.35631805     0.18200
H1901       H  0.53441321  0.68835511  0.37035790     0.18200
F1902       F  0.53756389  0.64693964  0.42077450    -0.19600
C1903       C  0.52249239  0.83086319  0.37043831    -0.21000
C1904       C  0.50623783  0.83609526  0.33947934    -0.09100
C1905       C  0.98807110  0.86626834  0.33467011     0.29800
C1906       C  0.98710238  0.89092568  0.35982610    -0.21000
C1907       C  0.50319672  0.88567913  0.39083386    -0.09100
C1908       C  0.52068941  0.85511598  0.39602846     0.29800
F1909       F  0.53679672  0.84898269  0.42546778    -0.19600
H1910       H  0.53658527  0.80782626  0.37480179     0.18200
H1911       H  0.97312763  0.91398243  0.35525702     0.18200
F1912       F  0.97070923  0.87166387  0.30582119    -0.19600
C1913       C  0.52629297  0.85873349  0.10911670    -0.21000
C1914       C  0.50528646  0.88697249  0.11382011    -0.09100
C1915       C  0.98788717  0.89055715  0.14466528     0.29800
C1916       C  0.99087855  0.86594680  0.16981650    -0.21000
C1917       C  0.51175064  0.83763534  0.16509261    -0.09100
C1918       C  0.52994172  0.83454473  0.13464581     0.29800
F1919       F  0.55110560  0.80802552  0.12957697    -0.19600
H1920       H  0.54041958  0.85573272  0.08585172     0.18200
H1921       H  0.97638660  0.86868323  0.19289127     0.18200
F1922       F  0.96713585  0.91731357  0.15014543    -0.19600
C1923       C  0.97853040  0.60948688  0.14071165    -0.21000
C1924       C  0.50055869  0.61191797  0.11290479    -0.09100
C1925       C  0.52273255  0.63953175  0.11057257     0.29800
C1926       C  0.52295803  0.66416727  0.13563032    -0.21000
C1927       C  0.50088857  0.66194681  0.16334416    -0.09100
C1928       C  0.97840928  0.63443938  0.16562294     0.29800
F1929       F  0.95635009  0.63178707  0.19184896    -0.19600
H1930       H  0.96114812  0.58845043  0.14290448     0.18200
H1931       H  0.54075068  0.68487315  0.13367206     0.18200
F1932       F  0.54517099  0.64197347  0.08474104    -0.19600
N1933       N  0.49741997  0.74991142  0.80425718    -0.36300
N1934       N  0.49712056  0.80234656  0.75333393    -0.56900
N1935       N  0.50329788  0.75090757  0.70124344    -0.36300
N1936       N  0.49946203  0.69852583  0.75212974    -0.56900
C1937       C  0.48794378  0.77674452  0.82302808     0.27300
C1938       C  0.49110686  0.72182656  0.82261402     0.27300
C1939       C  0.49490243  0.77884187  0.68346001     0.27200
C1940       C  0.49424238  0.72366852  0.68280106     0.27200
C1941       C  0.50228357  0.82108465  0.78116493     0.35900
C1942       C  0.50733756  0.82143787  0.72693202     0.35900
C1943       C  0.50823938  0.68007833  0.77936446     0.35900
C1944       C  0.50907392  0.68042149  0.72488497     0.35900
C1945       C  0.47529561  0.76558363  0.85377476    -0.21600
C1946       C  0.47734220  0.73084561  0.85353250    -0.21600
C1947       C  0.48001376  0.76934207  0.65348321    -0.21600
C1948       C  0.47942607  0.73453399  0.65314049    -0.21600
C1949       C  0.51582218  0.85219395  0.77247626    -0.22700
C1950       C  0.51935873  0.85229243  0.73809985    -0.22700
C1951       C  0.52365918  0.65028488  0.76942553    -0.22700
C1952       C  0.52442546  0.65061843  0.73488874    -0.22700
C1953       C  0.49359228  0.81088923  0.81416745    -0.18000
C1954       C  0.50019604  0.68869745  0.81295183    -0.18000
C1955       C  0.50152621  0.68956455  0.69133313    -0.18000
C1956       C  0.50248723  0.81246042  0.69291831    -0.18000
H1957       H  0.46631679  0.78088314  0.87452386     0.14900
H1958       H  0.47014884  0.71420810  0.87402757     0.14900
H1959       H  0.47066525  0.78577768  0.63383100     0.14900
H1960       H  0.46948957  0.71905749  0.63314003     0.14900
H1961       H  0.52259481  0.87260657  0.78915670     0.13200
H1962       H  0.52921769  0.87293201  0.72306719     0.13200
H1963       H  0.53322346  0.63032731  0.78540296     0.13200
H1964       H  0.53479315  0.63099249  0.71899197     0.13200
H1965       H  0.51142122  0.75078967  0.78203190     0.26400
H1966       H  0.51798924  0.75057600  0.72288568     0.26400
O1967       O  0.50296518  0.59589445  0.55596702    -0.86200
O1968       O  0.50338915  0.90578973  0.55872733    -0.86400
O1969       O  0.94806677  0.50205574  0.59722834    -0.88100
O1970       O  0.55806187  0.49751377  0.59479555    -0.86800
O1971       O  0.59631381  0.00206176  0.55445043    -0.86400
O1972       O  0.90384631  0.00046164  0.55590961    -0.87800
O1973       O  0.50111716  0.94737464  0.59879006    -0.86200
O1974       O  0.50276867  0.55471032  0.59669836    -0.85800
Zr1975     Zr  0.50015891  0.00105347  0.56926666     2.84300
O1976       O  0.53485177  0.96703926  0.53548645    -1.07800
O1977       O  0.96783309  0.53375335  0.53518188    -1.08500
C1978       C  0.50297171  0.58594986  0.58702681     1.06900
C1979       C  0.50274474  0.91621651  0.58958646     1.06800
C1980       C  0.91693687  0.50442396  0.58794983     1.09800
C1981       C  0.58903903  0.49806838  0.58422458     1.07600
H1982       H  0.95207289  0.95191590  0.55053238     0.33200
O1983       O  0.96610966  0.96597994  0.53629366    -1.28800
H1984       H  0.55093309  0.54812295  0.54773054     0.32800
O1985       O  0.53654347  0.53421302  0.53400612    -1.30400
O1986       O  0.49722641  0.90452847  0.94646753    -0.86200
O1987       O  0.50390340  0.59455857  0.94547961    -0.87700
O1988       O  0.90364549  0.94604137  0.99906883    -0.86300
O1989       O  0.59534924  0.94334421  0.99448185    -0.86300
O1990       O  0.59744802  0.55490307  0.99696738    -0.86000
O1991       O  0.90513935  0.55437653  0.99933918    -0.85900
O1992       O  0.94206717  0.00061371  0.90633100    -0.86200
O1993       O  0.55138998  0.00160892  0.90342415    -0.85700
O1994       O  0.90169626  0.00311966  0.94796965    -0.86800
O1995       O  0.59347924  0.00407901  0.94286730    -0.85900
O1996       O  0.94427621  0.90457768  0.00166525    -0.86300
O1997       O  0.94591815  0.59553043  0.00173275    -0.86000
O1998       O  0.55603792  0.59546797  0.99868822    -0.85700
O1999       O  0.55394731  0.90280430  0.99790222    -0.86100
O2000       O  0.49445627  0.94538062  0.90537238    -0.86400
O2001       O  0.50153779  0.55332257  0.90499181    -0.87700
Zr2002     Zr  0.49944240  0.93157002  0.00122693     2.83100
Zr2003     Zr  0.50129795  0.56765794  0.00075316     2.83500
Zr2004     Zr  0.93165770  0.00098584  0.00187730     2.84100
Zr2005     Zr  0.56843892  0.99862502  0.99884138     2.83400
Zr2006     Zr  0.49769716  0.99994605  0.93308175     2.81300
O2007       O  0.53498639  0.53314100  0.96658019    -1.08300
O2008       O  0.96458875  0.96585216  0.96794600    -1.07800
C2009       C  0.49519300  0.91440925  0.91555839     1.06900
C2010       C  0.50324904  0.58438704  0.91462009     1.09500
C2011       C  0.91337176  0.91485533  0.99970784     1.07000
C2012       C  0.58506665  0.91237124  0.99493704     1.07400
C2013       C  0.58719651  0.58588353  0.99694293     1.07000
C2014       C  0.91481417  0.58550165  0.00044470     1.06500
C2015       C  0.91101115  0.00208395  0.91667900     1.07000
C2016       C  0.58255326  0.00419167  0.91231754     1.06500
H2017       H  0.95314764  0.54780918  0.95246257     0.33100
O2018       O  0.96718647  0.53383704  0.96659271    -1.29400
H2019       H  0.54630644  0.95136092  0.95080161     0.33200
O2020       O  0.53290257  0.96529163  0.96562166    -1.30800
N2021       N  0.75047677  0.50489047  0.80197905    -0.36300
N2022       N  0.69932477  0.50364260  0.74934334    -0.56900
N2023       N  0.75195556  0.51187477  0.69880947    -0.36300
N2024       N  0.80306916  0.50889739  0.75164573    -0.56900
C2025       C  0.72252281  0.49592561  0.81959685     0.27300
C2026       C  0.77763370  0.49600649  0.82060392     0.27300
C2027       C  0.72561277  0.50181036  0.67964541     0.27200
C2028       C  0.78055719  0.50649019  0.68068239     0.27200
C2029       C  0.67951020  0.50976582  0.77648632     0.35900
C2030       C  0.68028303  0.51038321  0.72201756     0.35900
C2031       C  0.82195924  0.51318485  0.77954103     0.35900
C2032       C  0.82251817  0.51862425  0.72525246     0.35900
C2033       C  0.73188903  0.48114466  0.84980923    -0.21600
C2034       C  0.76667359  0.48093902  0.85032871    -0.21600
C2035       C  0.73772463  0.49003945  0.64900638    -0.21600
C2036       C  0.77231547  0.49325522  0.64955507    -0.21600
C2037       C  0.64782213  0.52060176  0.76637463    -0.22700
C2038       C  0.64831298  0.52096726  0.73183577    -0.22700
C2039       C  0.85344292  0.52599748  0.77079645    -0.22700
C2040       C  0.85381725  0.52935983  0.73639259    -0.22700
C2041       C  0.68889473  0.50310886  0.81009266    -0.18000
C2042       C  0.81180632  0.50348155  0.81243136    -0.18000
C2043       C  0.81384167  0.51398552  0.69115950    -0.18000
C2044       C  0.69090900  0.50483716  0.68844474    -0.18000
H2045       H  0.71537259  0.47174404  0.86956075     0.14900
H2046       H  0.78207656  0.47131486  0.87060150     0.14900
H2047       H  0.72321236  0.48011125  0.62831046     0.14900
H2048       H  0.78946092  0.48625871  0.62939968     0.14900
H2049       H  0.62645364  0.52724645  0.78218522     0.13200
H2050       H  0.62747540  0.52808014  0.71581352     0.13200
H2051       H  0.87415780  0.53195845  0.78736632     0.13200
H2052       H  0.87497076  0.53799638  0.72122665     0.13200
H2053       H  0.75068044  0.51995911  0.78050299     0.26400
H2054       H  0.75043376  0.52472077  0.72157125     0.26400
N2055       N  0.75074496  0.80153733  0.98582706    -0.36300
N2056       N  0.69940531  0.74988609  0.98731618    -0.56900
N2057       N  0.75092001  0.69861721  0.99209180    -0.36300
N2058       N  0.80237427  0.74995522  0.99290816    -0.56900
C2059       C  0.72283439  0.81966678  0.99391759     0.27300
C2060       C  0.77788332  0.81994456  0.99498348     0.27300
C2061       C  0.72263815  0.68160927  0.00099674     0.27200
C2062       C  0.77744132  0.68153550  0.00497014     0.27200
C2063       C  0.68089697  0.77684245  0.97795038     0.35900
C2064       C  0.68138163  0.72235892  0.97891435     0.35900
C2065       C  0.82190638  0.77672637  0.98469599     0.35900
C2066       C  0.82195286  0.72222402  0.98924354     0.35900
C2067       C  0.73235896  0.84991632  0.00849930    -0.21600
C2068       C  0.76716335  0.85015131  0.00905482    -0.21600
C2069       C  0.73118171  0.65373376  0.02038103    -0.21600
C2070       C  0.76593593  0.65358816  0.02272099    -0.21600
C2071       C  0.65114958  0.76653887  0.96298285    -0.22700
C2072       C  0.65157412  0.73183472  0.96333055    -0.22700
C2073       C  0.85401007  0.76595015  0.97544951    -0.22700
C2074       C  0.85403506  0.73133793  0.97833799    -0.22700
C2075       C  0.68927827  0.81026955  0.98626502    -0.18000
C2076       C  0.81197071  0.81068811  0.98927440    -0.18000
C2077       C  0.81166660  0.68930214  0.99842042    -0.18000
C2078       C  0.68988473  0.68943569  0.98941333    -0.18000
H2079       H  0.71598549  0.86987609  0.01752562     0.14900
H2080       H  0.78278206  0.87028974  0.01869610     0.14900
H2081       H  0.71420880  0.63511534  0.03114029     0.14900
H2082       H  0.78105236  0.63486893  0.03560713     0.14900
H2083       H  0.63102543  0.78236587  0.95349544     0.13200
H2084       H  0.63173336  0.71552451  0.95422417     0.13200
H2085       H  0.87538648  0.78144131  0.96815682     0.13200
H2086       H  0.87538723  0.71488843  0.97361430     0.13200
H2087       H  0.75144622  0.77955137  0.97152984     0.26400
H2088       H  0.75228912  0.71816581  0.97451026     0.26400
C2089       C  0.86158771  0.89135651  0.97335893    -0.21000
C2090       C  0.88716833  0.88861281  0.99749491    -0.09100
C2091       C  0.88902967  0.86151347  0.52250586     0.29800
C2092       C  0.86396464  0.83680505  0.52202858    -0.21000
C2093       C  0.83841600  0.83727371  0.99121973    -0.09100
C2094       C  0.83760654  0.86569348  0.96989653     0.29800
F2095       F  0.81379147  0.86844515  0.94562644    -0.19600
H2096       H  0.86068997  0.91302015  0.95666532     0.18200
H2097       H  0.86396051  0.81719527  0.54109518     0.18200
F2098       F  0.91279116  0.86055150  0.54694510    -0.19600
C2099       C  0.89124920  0.63888685  0.52847632    -0.21000
C2100       C  0.88807946  0.61165393  0.00033310    -0.09100
C2101       C  0.86069553  0.60958702  0.97803409     0.29800
C2102       C  0.83565960  0.63456720  0.97803405    -0.21000
C2103       C  0.83732493  0.66185536  0.00039638    -0.09100
C2104       C  0.86595475  0.66355436  0.53059976     0.29800
F2105       F  0.86933874  0.68919287  0.55289667    -0.19600
H2106       H  0.91302736  0.64067865  0.54473086     0.18200
H2107       H  0.81523069  0.63300981  0.96010543     0.18200
F2108       F  0.85880939  0.58412073  0.95539690    -0.19600
C2109       C  0.66386547  0.86509288  0.96780174    -0.21000
C2110       C  0.66190269  0.83599954  0.98793504    -0.09100
C2111       C  0.63407255  0.83347550  0.51516150     0.29800
C2112       C  0.60945898  0.85872761  0.51667053    -0.21000
C2113       C  0.61104724  0.88578523  0.99177015    -0.09100
C2114       C  0.63873886  0.88984144  0.96968073     0.29800
F2115       F  0.64110490  0.91735151  0.94933736    -0.19600
H2116       H  0.68497238  0.86859080  0.95061254     0.18200
H2117       H  0.58754633  0.85505779  0.53279788     0.18200
F2118       F  0.63010750  0.80539394  0.53446299    -0.19600
C2119       C  0.64373246  0.60642098  0.97743157    -0.21000
C2120       C  0.61317934  0.61255390  0.99463274    -0.09100
C2121       C  0.61140099  0.64015631  0.51889432     0.29800
C2122       C  0.63622932  0.66513826  0.51888570    -0.21000
C2123       C  0.66327612  0.66298626  0.99050815    -0.09100
C2124       C  0.66835527  0.63159453  0.97485500     0.29800
F2125       F  0.69700695  0.62544641  0.95686819    -0.19600
H2126       H  0.64828833  0.58232391  0.96540854     0.18200
H2127       H  0.63393927  0.68612525  0.53616983     0.18200
F2128       F  0.58537788  0.64250756  0.54104091    -0.19600
C2129       C  0.86702715  0.48094050  0.83461516    -0.21000
C2130       C  0.83801960  0.50100774  0.83934956    -0.09100
C2131       C  0.83172814  0.02656383  0.86854859     0.29800
C2132       C  0.85605859  0.02426303  0.89397958    -0.21000
C2133       C  0.88421448  0.00286213  0.89051756    -0.09100
C2134       C  0.89245322  0.47986311  0.85897111     0.29800
F2135       F  0.92047194  0.46095064  0.85299558    -0.19600
H2136       H  0.87020378  0.46650609  0.81170055     0.18200
H2137       H  0.85320238  0.03972729  0.91613784     0.18200
F2138       F  0.80570326  0.04863307  0.87223631    -0.19600
C2139       C  0.63078216  0.98973185  0.83154505    -0.21000
C2140       C  0.66222997  0.50285839  0.83657819    -0.09100
C2141       C  0.66385537  0.52537673  0.86377505     0.29800
C2142       C  0.63924086  0.52439384  0.88910996    -0.21000
C2143       C  0.60781408  0.00755099  0.88530692    -0.09100
C2144       C  0.60552101  0.98784275  0.85611977     0.29800
F2145       F  0.57961224  0.96581070  0.85200522    -0.19600
H2146       H  0.62936863  0.97339389  0.80979505     0.18200
H2147       H  0.64092408  0.54182471  0.90998364     0.18200
F2148       F  0.68912092  0.54845056  0.86560579    -0.19600
C2149       C  0.60913996  0.98064596  0.64022531    -0.21000
C2150       C  0.61573240  0.49846517  0.61007829    -0.09100
C2151       C  0.64390265  0.51981367  0.60647737     0.29800
C2152       C  0.66774790  0.52209750  0.63215716    -0.21000
C2153       C  0.66483016  0.50218553  0.66139162    -0.09100
C2154       C  0.63388761  0.98064325  0.66508765     0.29800
F2155       F  0.63025955  0.95991858  0.69215310    -0.19600
H2156       H  0.58726228  0.96443831  0.64324259     0.18200
H2157       H  0.68862498  0.53956888  0.62924522     0.18200
F2158       F  0.64770015  0.53950471  0.57868336    -0.19600
C2159       C  0.84251330  0.53653143  0.63909217    -0.21000
C2160       C  0.84151745  0.51298258  0.66558798    -0.09100
C2161       C  0.86711635  0.98458378  0.66861858     0.29800
C2162       C  0.89209221  0.98453488  0.64359245    -0.21000
C2163       C  0.89128787  0.50789527  0.61476685    -0.09100
C2164       C  0.86722415  0.53403059  0.61378113     0.29800
F2165       F  0.86809604  0.55744554  0.58874575    -0.19600
H2166       H  0.82394093  0.55659772  0.63792354     0.18200
H2167       H  0.91516807  0.97047748  0.64779451     0.18200
F2168       F  0.87219253  0.96633319  0.69710328    -0.19600
C2169       C  0.98170225  0.60771899  0.86077450    -0.21000
C2170       C  0.50367732  0.61048194  0.88816583    -0.09100
C2171       C  0.52509170  0.63869541  0.89041849     0.29800
C2172       C  0.52384560  0.66410424  0.86594205    -0.21000
C2173       C  0.50123768  0.66172635  0.83900112    -0.09100
C2174       C  0.98024245  0.63323471  0.83650455     0.29800
F2175       F  0.95807607  0.63034060  0.81077238    -0.19600
H2176       H  0.96501660  0.58616124  0.85865185     0.18200
H2177       H  0.54061216  0.68561374  0.86785470     0.18200
F2178       F  0.54774556  0.64123125  0.91577760    -0.19600
C2179       C  0.51622476  0.83557452  0.86700737    -0.21000
C2180       C  0.49256120  0.83689500  0.84095359    -0.09100
C2181       C  0.96943854  0.86385747  0.83962233     0.29800
C2182       C  0.97055811  0.88938991  0.86379371    -0.21000
C2183       C  0.49422600  0.88792564  0.88985913    -0.09100
C2184       C  0.51697864  0.86077456  0.89140709     0.29800
F2185       F  0.54071727  0.85931736  0.91585992    -0.19600
H2186       H  0.53447381  0.81521099  0.86807970     0.18200
H2187       H  0.95270157  0.91002643  0.86247093     0.18200
F2188       F  0.94592594  0.86543616  0.81496281    -0.19600
C2189       C  0.52288231  0.86092972  0.61230004    -0.21000
C2190       C  0.50363411  0.89042290  0.61655632    -0.09100
C2191       C  0.98504184  0.89475899  0.64658682     0.29800
C2192       C  0.98423839  0.86914369  0.67083454    -0.21000
C2193       C  0.50338284  0.83951469  0.66659505    -0.09100
C2194       C  0.52333679  0.83599820  0.63732559     0.29800
F2195       F  0.54341118  0.80852943  0.63302676    -0.19600
H2196       H  0.53801203  0.85742102  0.58973871     0.18200
H2197       H  0.96862160  0.87247618  0.69309098     0.18200
F2198       F  0.96682239  0.92328309  0.65213970    -0.19600
C2199       C  0.98704789  0.60619332  0.64481435    -0.21000
C2200       C  0.50292211  0.61236490  0.61364170    -0.09100
C2201       C  0.51796103  0.64414387  0.60814435     0.29800
C2202       C  0.51803708  0.66857126  0.63353687    -0.21000
C2203       C  0.50155283  0.66278817  0.66449627    -0.09100
C2204       C  0.98555800  0.63127208  0.66960054     0.29800
F2205       F  0.96800759  0.62476109  0.69838155    -0.19600
H2206       H  0.97476965  0.58220517  0.64964749     0.18200
H2207       H  0.53088947  0.69227903  0.62885214     0.18200
F2208       F  0.53290344  0.65166274  0.57830449    -0.19600
loop_ 
_geom_bond_atom_site_label_1 
_geom_bond_atom_site_label_2 
_geom_bond_distance 
_geom_bond_site_symmetry_2 
_ccdc_geom_bond_type 
N1            C6   1.353   1_455  A
N1            C5   1.353   1_455  A
N1           H33   1.040       .  S
N2            C9   1.352       .  A
N2           C10   1.351       .  A
N3            C8   1.353   1_455  A
N3            C7   1.353   1_455  A
N3           H34   1.041       .  S
N4           C11   1.350   1_655  A
N4           C12   1.351   1_655  A
C5           C13   1.388       .  A
C5           C21   1.418   1_655  A
C6           C22   1.417       .  A
C6           C14   1.387       .  A
C7           C15   1.387       .  A
C7           C24   1.415   1_655  A
C8           C23   1.416   1_655  A
C8           C16   1.387       .  A
C9           C21   1.415       .  A
C9           C17   1.387       .  A
C10          C24   1.411       .  A
C10          C18   1.385       .  A
C11          C19   1.387       .  A
C11          C22   1.411   1_455  A
C12          C20   1.386       .  A
C12          C23   1.410       .  A
C13          C14   1.378       .  A
C13          H25   1.082       .  S
C14          H26   1.082       .  S
C15          C16   1.377       .  A
C15          H27   1.082       .  S
C16          H28   1.082       .  S
C17          C18   1.373       .  A
C17          H29   1.082       .  S
C18          H30   1.082       .  S
C19          C20   1.373       .  A
C19          H31   1.082       .  S
C20          H32   1.082       .  S
C21         C248   1.495       .  S
C22         C241   1.488       .  S
C23         C271   1.494       .  S
C24         C261   1.489       .  S
O35          C46   1.294       .  A
O35        Zr347   2.447       .  S
O36          C47   1.293       .  A
O36        Zr346   2.442       .  S
O37          C48   1.293       .  A
O37       Zr1699   2.441   1_545  S
O38          C49   1.292       .  A
O38        Zr595   2.438       .  S
O39         C601   1.293       .  A
O39        Zr349   2.442       .  S
O40         C600   1.293       .  A
O40        Zr348   2.443       .  S
O41          C47   1.293       .  A
O41         Zr43   2.443       .  S
O42          C46   1.291       .  A
O42        Zr595   2.431   1_545  S
Zr43       O1693   2.433   1_455  S
Zr43        O590   2.448       .  S
Zr43        O594   2.442       .  S
Zr43         O44   2.343       .  S
Zr43       O1701   2.344   1_455  S
Zr43        O605   2.346       .  S
Zr43       O1155   2.341   1_455  S
O44        Zr346   2.338       .  S
O44        Zr349   2.343       .  S
O45       Zr1699   2.338   1_545  S
O45       Zr1451   2.342       .  S
O45        Zr900   2.345       .  S
C46         C268   1.478       .  S
C47         C258   1.476       .  S
C48         C231   1.476       .  S
C48         O592   1.292       .  A
C49         C218   1.477       .  S
C49         O591   1.294       .  A
H50          O51   0.966       .  S
O51       Zr1147   2.341       .  S
O51       Zr1450   2.346       .  S
O51        Zr348   2.351       .  S
H52          O53   0.963       .  S
O53        Zr595   2.349   1_545  S
O53        Zr347   2.333       .  S
O53        Zr901   2.342   1_544  S
O54          C77   1.294       .  A
O54         Zr70   2.450       .  S
O55          C78   1.291       .  A
O55         Zr71   2.429       .  S
O56          C79   1.292       .  A
O56         Zr72   2.439       .  S
O57          C80   1.292       .  A
O57         Zr73   2.440       .  S
O58          C81   1.294       .  A
O58        Zr625   2.448       .  S
O59          C82   1.290       .  A
O59        Zr624   2.427   1_545  S
O60          C83   1.292       .  A
O60       Zr1178   2.439       .  S
O61          C84   1.292       .  A
O61         Zr74   2.437   1_455  S
O62          C83   1.293       .  A
O62         Zr72   2.448       .  S
O63          C84   1.291       .  A
O63         Zr73   2.430       .  S
O64          C79   1.292       .  A
O64       Zr1174   2.433       .  S
O65          C82   1.294       .  A
O65       Zr1175   2.445       .  S
O66          C81   1.292       .  A
O66         Zr71   2.437   1_455  S
O67          C80   1.294       .  A
O67         Zr70   2.446       .  S
O68          C77   1.292   1_655  A
O68         Zr74   2.435       .  S
O69          C78   1.293       .  A
O69        Zr626   2.441   1_545  S
Zr70        O312   2.448       .  S
Zr70       O1168   2.433   1_455  S
Zr70         O88   2.330       .  S
Zr70        O320   2.340       .  S
Zr70       O1431   2.350   1_455  S
Zr70       O1180   2.344   1_455  S
Zr71        O311   2.454   1_655  S
Zr71       O1169   2.445       .  S
Zr71         O75   2.345   1_655  S
Zr71       O1425   2.335       .  S
Zr71        O329   2.334   1_655  S
Zr71       O1190   2.353       .  S
Zr72        O316   2.444       .  S
Zr72        O611   2.437       .  S
Zr72         O76   2.339       .  S
Zr72        O873   2.340       .  S
Zr72        O327   2.351       .  S
Zr72        O638   2.337       .  S
Zr73        O315   2.446       .  S
Zr73        O610   2.438       .  S
Zr73         O88   2.335       .  S
Zr73        O320   2.343       .  S
Zr73        O881   2.343       .  S
Zr73        O627   2.341       .  S
Zr74       O1164   2.439       .  S
Zr74        O621   2.428       .  S
Zr74         O88   2.331   1_655  S
Zr74        O627   2.348   1_655  S
Zr74       O1180   2.333       .  S
Zr74       O1742   2.343       .  S
O75        Zr625   2.335       .  S
O75        Zr626   2.347   1_445  S
O76       Zr1174   2.344       .  S
O76       Zr1178   2.333       .  S
C77         C251   1.480       .  S
C78         C238   1.471       .  S
C79         C158   1.470       .  S
C80         C181   1.477       .  S
C81         C188   1.485       .  S
C82         C168   1.473       .  S
C83         C201   1.480       .  S
C84         C211   1.471       .  S
H85          O86   0.965       .  S
O86       Zr1175   2.353       .  S
O86        Zr624   2.331   1_545  S
O86       Zr1730   2.345   1_545  S
H87          O88   0.965       .  S
N89          C94   1.356   1_545  A
N89          C93   1.351   1_545  A
N89         H121   1.041       .  S
N90          C97   1.349       .  A
N90          C98   1.351       .  A
N91          C96   1.353       .  A
N91          C95   1.356       .  A
N91         H122   1.041       .  S
N92          C99   1.353       .  A
N92         C100   1.350       .  A
C93         C101   1.387       .  A
C93         C109   1.413   1_565  A
C94         C110   1.416   1_565  A
C94         C102   1.386       .  A
C95         C103   1.386   1_545  A
C95         C112   1.417       .  A
C96         C111   1.417       .  A
C96         C104   1.387   1_545  A
C97         C109   1.410       .  A
C97         C105   1.387       .  A
C98         C112   1.412       .  A
C98         C106   1.387       .  A
C99         C107   1.385       .  A
C99         C110   1.414       .  A
C100        C108   1.387       .  A
C100        C111   1.414       .  A
C101        C102   1.377       .  A
C101        H113   1.082       .  S
C102        H114   1.082       .  S
C103        C104   1.375       .  A
C103        H115   1.082       .  S
C104        H116   1.082       .  S
C105        C106   1.375       .  A
C105        H117   1.082       .  S
C106        H118   1.082       .  S
C107        C108   1.374       .  A
C107        H119   1.082       .  S
C108        H120   1.082       .  S
C109        C208   1.480       .  S
C110        C198   1.501   1_545  S
C111        C228   1.492       .  S
C112        C221   1.495       .  S
N123        C128   1.351       .  A
N123        C127   1.353       .  A
N123        H155   1.042       .  S
N124        C131   1.349       .  A
N124        C132   1.350       .  A
N125        C130   1.352       .  A
N125        C129   1.352       .  A
N125        H156   1.042       .  S
N126        C133   1.350       .  A
N126        C134   1.350       .  A
C127        C135   1.387       .  A
C127        C143   1.413       .  A
C128        C144   1.412       .  A
C128        C136   1.387       .  A
C129        C137   1.388       .  A
C129        C146   1.416       .  A
C130        C145   1.412       .  A
C130        C138   1.386       .  A
C131        C143   1.410       .  A
C131        C139   1.385       .  A
C132        C146   1.414       .  A
C132        C140   1.387       .  A
C133        C141   1.386       .  A
C133        C144   1.411       .  A
C134        C142   1.387       .  A
C134        C145   1.411       .  A
C135        C136   1.377       .  A
C135        H147   1.082       .  S
C136        H148   1.082       .  S
C137        C138   1.377       .  A
C137        H149   1.082       .  S
C138        H150   1.082       .  S
C139        C140   1.376       .  A
C139        H151   1.082       .  S
C140        H152   1.082       .  S
C141        C142   1.375       .  A
C141        H153   1.082       .  S
C142        H154   1.082       .  S
C143        C178   1.489       .  S
C144        C161   1.488       .  S
C145        C171   1.487       .  S
C146        C191   1.494       .  S
C157        C158   1.403       .  A
C157        C162   1.397       .  A
C157        H164   1.084       .  S
C158        C435   1.404       .  A
C159        C160   1.395       .  A
C159        C434   1.403   1_554  A
C159        F166   1.358       .  S
C160        C437   1.405   1_554  A
C160        H165   1.083       .  S
C161        C162   1.408       .  A
C161        C436   1.404       .  A
C162        F163   1.358       .  S
C167        C172   1.395       .  A
C167        C444   1.401   1_554  A
C167        H174   1.084       .  S
C168        C169   1.407       .  A
C168        C443   1.404       .  A
C169        C170   1.395       .  A
C169        F176   1.357       .  S
C170        C171   1.403       .  A
C170        H175   1.083       .  S
C171        C448   1.407       .  A
C172        C447   1.406   1_554  A
C172        F173   1.357       .  S
C177        C178   1.405       .  A
C177        C182   1.402       .  A
C177        H184   1.083       .  S
C178        C455   1.405       .  A
C179        C180   1.399       .  A
C179        C454   1.405   1_554  A
C179        F186   1.357       .  S
C180        C457   1.404   1_554  A
C180        H185   1.083       .  S
C181        C182   1.410       .  A
C181        C456   1.402       .  A
C182        F183   1.358       .  S
C187        C188   1.406       .  A
C187        C192   1.400       .  A
C187        H194   1.083       .  S
C188        C465   1.410       .  A
C189        C190   1.397       .  A
C189        C464   1.406   1_554  A
C189        F196   1.353       .  S
C190        C467   1.403   1_554  A
C190        H195   1.083       .  S
C191        C192   1.408       .  A
C191        C466   1.404       .  A
C192        F193   1.358       .  S
C197        C198   1.408       .  A
C197        C202   1.403       .  A
C197        H204   1.083       .  S
C198        C751   1.408   1_565  A
C199        C200   1.400       .  A
C199        C750   1.406       .  A
C199        F206   1.357       .  S
C200        C201   1.404       .  A
C200        H205   1.082       .  S
C201        C754   1.408       .  A
C202        C753   1.409       .  A
C202        F203   1.357       .  S
C207        C212   1.400       .  A
C207        C760   1.407       .  A
C207        H214   1.083       .  S
C208        C209   1.404       .  A
C208        C759   1.403   1_545  A
C209        C210   1.394       .  A
C209        F216   1.357       .  S
C210        C763   1.402       .  A
C210        H215   1.084       .  S
C211        C212   1.408       .  A
C211        C762   1.402       .  A
C212        F213   1.358       .  S
C217        C222   1.400       .  A
C217        C770   1.404       .  A
C217        H224   1.083       .  S
C218        C219   1.406   1_565  A
C218        C769   1.404       .  A
C219        C220   1.399       .  A
C219        F226   1.358       .  S
C220        C221   1.405       .  A
C220        H225   1.083       .  S
C221        C774   1.409   1_545  A
C222        C773   1.408       .  A
C222        F223   1.358       .  S
C227        C228   1.405       .  A
C227        C232   1.397       .  A
C227        H234   1.083       .  S
C228        C781   1.408   1_545  A
C229        C230   1.397       .  A
C229        C780   1.406       .  A
C229        F236   1.358       .  S
C230        C783   1.404       .  A
C230        H235   1.083       .  S
C231        C232   1.407       .  A
C231        C782   1.404   1_545  A
C232        F233   1.358       .  S
C237        C242   1.398       .  A
C237       C1342   1.403       .  A
C237        H244   1.084       .  S
C238        C239   1.405   1_655  A
C238       C1341   1.403       .  A
C239        C240   1.394       .  A
C239        F246   1.358       .  S
C240        C241   1.403   1_455  A
C240        H245   1.083       .  S
C241       C1346   1.409       .  A
C242       C1345   1.409       .  A
C242        F243   1.358       .  S
C247        C248   1.406       .  A
C247        C252   1.400       .  A
C247        H254   1.083       .  S
C248       C1353   1.408   1_455  A
C249        C250   1.398       .  A
C249       C1352   1.408       .  A
C249        F256   1.358       .  S
C250       C1355   1.405       .  A
C250        H255   1.082       .  S
C251        C252   1.407       .  A
C251       C1354   1.405   1_455  A
C252        F253   1.358       .  S
C257        C258   1.404       .  A
C257        C262   1.398       .  A
C257        H264   1.083       .  S
C258       C1363   1.407   1_455  A
C259        C260   1.400       .  A
C259       C1362   1.407       .  A
C259        F266   1.357       .  S
C260       C1365   1.405       .  A
C260        H265   1.083       .  S
C261        C262   1.405       .  A
C261       C1364   1.405   1_455  A
C262        F263   1.357       .  S
C267        C272   1.400       .  A
C267       C1372   1.405       .  A
C267        H274   1.083       .  S
C268        C269   1.404       .  A
C268       C1371   1.405   1_455  A
C269        C270   1.395       .  A
C269        F276   1.353       .  S
C270        C271   1.404       .  A
C270        H275   1.083       .  S
C271       C1376   1.410   1_455  A
C272       C1375   1.410       .  A
C272        F273   1.358       .  S
N277        C282   1.353       .  A
N277        C281   1.353       .  A
N277        H309   1.041       .  S
N278        C285   1.350       .  A
N278        C286   1.351       .  A
N279        C284   1.353       .  A
N279        C283   1.352       .  A
N279        H310   1.042       .  S
N280        C287   1.350       .  A
N280        C288   1.349       .  A
C281        C289   1.387   1_455  A
C281        C297   1.415       .  A
C282        C298   1.414       .  A
C282        C290   1.387   1_455  A
C283        C291   1.388   1_455  A
C283        C300   1.416       .  A
C284        C299   1.413       .  A
C284        C292   1.386   1_455  A
C285        C297   1.413       .  A
C285        C293   1.386       .  A
C286        C300   1.414       .  A
C286        C294   1.387       .  A
C287        C295   1.386       .  A
C287        C298   1.411       .  A
C288        C296   1.386       .  A
C288        C299   1.409       .  A
C289        C290   1.377       .  A
C289        H301   1.082       .  S
C290        H302   1.082       .  S
C291        C292   1.377       .  A
C291        H303   1.082       .  S
C292        H304   1.082       .  S
C293        C294   1.376       .  A
C293        H305   1.082       .  S
C294        H306   1.082       .  S
C295        C296   1.374       .  A
C295        H307   1.082       .  S
C296        H308   1.082       .  S
C297        C524   1.491       .  S
C298        C517   1.489       .  S
C299        C547   1.489       .  S
C300        C537   1.495       .  S
O311        C322   1.295       .  A
O312        C323   1.295       .  A
O313        C324   1.293       .  A
O313      Zr1975   2.443       .  S
O314        C325   1.292   1_565  A
O314       Zr871   2.437   1_565  S
O315        C877   1.294       .  A
O316        C876   1.293       .  A
O317        C323   1.290       .  A
O317       Zr319   2.426       .  S
O318        C322   1.292       .  A
O318       Zr871   2.441       .  S
Zr319      O1969   2.437   1_455  S
Zr319       O866   2.441       .  S
Zr319       O870   2.450       .  S
Zr319       O320   2.346       .  S
Zr319      O1977   2.335   1_455  S
Zr319       O881   2.341       .  S
Zr319      O1431   2.348   1_455  S
O321      Zr1975   2.337       .  S
O321      Zr1175   2.335       .  S
O321       Zr624   2.346   1_545  S
C322        C544   1.480       .  S
C323        C534   1.478       .  S
C324        C507   1.475       .  S
C324        O868   1.291       .  A
C325        C494   1.471       .  S
C325        O867   1.291       .  A
H326        O327   0.966       .  S
O327      Zr1423   2.348       .  S
O327      Zr1174   2.350       .  S
H328        O329   0.965       .  S
O329       Zr871   2.343       .  S
O329       Zr625   2.340       .  S
O330        C353   1.294       .  A
O330       Zr346   2.447   1_556  S
O331        C354   1.293       .  A
O331       Zr347   2.443   1_556  S
O332        C355   1.290   1_556  A
O332       Zr348   2.426   1_556  S
O333        C356   1.294       .  A
O333       Zr349   2.447   1_556  S
O334        C357   1.292       .  A
O334       Zr901   2.442   1_545  S
O335        C358   1.291       .  A
O335       Zr900   2.432       .  S
O336        C359   1.292       .  A
O336      Zr1454   2.438       .  S
O337        C360   1.289       .  A
O337       Zr350   2.424       .  S
O338        C359   1.294       .  A
O338       Zr348   2.449   1_556  S
O339        C360   1.292       .  A
O339       Zr349   2.438   1_556  S
O340        C355   1.291       .  A
O340      Zr1450   2.429       .  S
O341        C358   1.290       .  A
O341      Zr1451   2.424       .  S
O342        C357   1.295       .  A
O342       Zr347   2.451   1_556  S
O343        C356   1.292   1_554  A
O343       Zr346   2.441       .  S
O344        C353   1.292       .  A
O344       Zr350   2.442       .  S
O345        C354   1.291   1_655  A
O345       Zr902   2.430   1_545  S
Zr346      O1444   2.429   1_455  S
Zr346      O1155   2.346   1_455  S
Zr346      O1456   2.345   1_454  S
Zr346       O364   2.337   1_554  S
Zr347      O1445   2.424   1_455  S
Zr347      O1149   2.342   1_455  S
Zr347       O351   2.327   1_554  S
Zr347      O1466   2.354   1_454  S
Zr348       O887   2.441   1_554  S
Zr348       O597   2.338       .  S
Zr348       O352   2.340   1_554  S
Zr348       O914   2.333   1_554  S
Zr349       O886   2.437   1_554  S
Zr349       O605   2.347       .  S
Zr349       O903   2.336   1_554  S
Zr349       O364   2.340   1_554  S
Zr350      O1440   2.438   1_455  S
Zr350       O897   2.435       .  S
Zr350       O903   2.341       .  S
Zr350      O1456   2.330   1_455  S
Zr350       O364   2.342       .  S
Zr350      O2018   2.343   1_455  S
O351       Zr901   2.332   1_545  S
O351       Zr902   2.343   1_445  S
O352      Zr1450   2.345   1_556  S
O352      Zr1454   2.330       .  S
C353        C527   1.480       .  S
C354        C514   1.475       .  S
C355        C434   1.462   1_554  S
C356        C457   1.477       .  S
C357        C464   1.485       .  S
C358        C444   1.460   1_554  S
C359        C477   1.484       .  S
C360        C487   1.467       .  S
H361        O362   0.965       .  S
O362      Zr1451   2.354   1_556  S
O362       Zr900   2.340   1_556  S
O362      Zr2006   2.330   1_545  S
H363        O364   0.966       .  S
N365        C370   1.355       .  A
N365        C369   1.352       .  A
N365        H397   1.041       .  S
N366        C373   1.348       .  A
N366        C374   1.349       .  A
N367        C372   1.350   1_545  A
N367        C371   1.352   1_545  A
N367        H398   1.041       .  S
N368        C375   1.353       .  A
N368        C376   1.352       .  A
C369        C377   1.387   1_545  A
C369        C385   1.415       .  A
C370        C386   1.416       .  A
C370        C378   1.386   1_545  A
C371        C379   1.386       .  A
C371        C388   1.412   1_565  A
C372        C387   1.414   1_565  A
C372        C380   1.388       .  A
C373        C385   1.409       .  A
C373        C381   1.387       .  A
C374        C388   1.409       .  A
C374        C382   1.386       .  A
C375        C383   1.384       .  A
C375        C386   1.414       .  A
C376        C384   1.387       .  A
C376        C387   1.416       .  A
C377        C378   1.377       .  A
C377        H389   1.082       .  S
C378        H390   1.082       .  S
C379        C380   1.376       .  A
C379        H391   1.082       .  S
C380        H392   1.082       .  S
C381        C382   1.373       .  A
C381        H393   1.082       .  S
C382        H394   1.082       .  S
C383        C384   1.376       .  A
C383        H395   1.082       .  S
C384        H396   1.082       .  S
C385        C484   1.483       .  S
C386        C474   1.501       .  S
C387        C504   1.492       .  S
C388        C497   1.485       .  S
N399        C404   1.353       .  A
N399        C403   1.351       .  A
N399        H431   1.040       .  S
N400        C407   1.352       .  A
N400        C408   1.353       .  A
N401        C406   1.351   1_556  A
N401        C405   1.353       .  A
N401        H432   1.040       .  S
N402        C409   1.348       .  A
N402        C410   1.347       .  A
C403        C411   1.388   1_556  A
C403        C419   1.414       .  A
C404        C420   1.413       .  A
C404        C412   1.386   1_556  A
C405        C413   1.387   1_556  A
C405        C422   1.415       .  A
C406        C421   1.412   1_554  A
C406        C414   1.387       .  A
C407        C419   1.414       .  A
C407        C415   1.385       .  A
C408        C422   1.417       .  A
C408        C416   1.386       .  A
C409        C417   1.387       .  A
C409        C420   1.408       .  A
C410        C418   1.387       .  A
C410        C421   1.406       .  A
C411        C412   1.375       .  A
C411        H423   1.082       .  S
C412        H424   1.082       .  S
C413        C414   1.375       .  A
C413        H425   1.082       .  S
C414        H426   1.083       .  S
C415        C416   1.375       .  A
C415        H427   1.082       .  S
C416        H428   1.082       .  S
C417        C418   1.371       .  A
C417        H429   1.082       .  S
C418        H430   1.082       .  S
C419        C454   1.489       .  S
C420        C437   1.482       .  S
C421        C447   1.476       .  S
C422        C467   1.496       .  S
C433        C434   1.402       .  A
C433        C438   1.394       .  A
C433        H440   1.084       .  S
C435        C436   1.397       .  A
C435        F442   1.358       .  S
C436        H441   1.083       .  S
C437        C438   1.404       .  A
C438        F439   1.357       .  S
C443        C448   1.399       .  A
C443        H450   1.083       .  S
C444        C445   1.402       .  A
C445        C446   1.391       .  A
C445        F452   1.355       .  S
C446        C447   1.400       .  A
C446        H451   1.084       .  S
C448        F449   1.357       .  S
C453        C454   1.404       .  A
C453        C458   1.400       .  A
C453        H460   1.083       .  S
C455        C456   1.395       .  A
C455        F462   1.357       .  S
C456        H461   1.083       .  S
C457        C458   1.407       .  A
C458        F459   1.358       .  S
C463        C464   1.407       .  A
C463        C468   1.404       .  A
C463        H470   1.082       .  S
C465        C466   1.398       .  A
C465        F472   1.356       .  S
C466        H471   1.083       .  S
C467        C468   1.410       .  A
C468        F469   1.358       .  S
C473        C474   1.406   1_565  A
C473        C478   1.403       .  A
C473        H480   1.083       .  S
C474       C1027   1.409       .  A
C475       C1026   1.407       .  A
C475        C476   1.398       .  A
C475        F482   1.357       .  S
C476        C477   1.404       .  A
C476        H481   1.082       .  S
C477       C1030   1.409       .  A
C478       C1029   1.408   1_565  A
C478        F479   1.356       .  S
C483       C1036   1.404       .  A
C483        C488   1.396       .  A
C483        H490   1.083       .  S
C484       C1035   1.404   1_545  A
C484        C485   1.405       .  A
C485        C486   1.396       .  A
C485        F492   1.358       .  S
C486       C1039   1.403       .  A
C486        H491   1.083       .  S
C487       C1038   1.402       .  A
C487        C488   1.406       .  A
C488        F489   1.358       .  S
C493       C1046   1.405       .  A
C493        C498   1.401       .  A
C493        H500   1.084       .  S
C494       C1045   1.404   1_545  A
C494        C495   1.406       .  A
C495        C496   1.396       .  A
C495        F502   1.358       .  S
C496        C497   1.403       .  A
C496        H501   1.083       .  S
C497       C1050   1.406   1_545  A
C498       C1049   1.411       .  A
C498        F499   1.358       .  S
C503        C504   1.406       .  A
C503        C508   1.397       .  A
C503        H510   1.083       .  S
C504       C1057   1.407   1_545  A
C505       C1056   1.406       .  A
C505        C506   1.397       .  A
C505        F512   1.357       .  S
C506       C1059   1.402       .  A
C506        H511   1.083       .  S
C507       C1058   1.403   1_545  A
C507        C508   1.407       .  A
C508        F509   1.358       .  S
C513       C1618   1.405       .  A
C513        C518   1.397       .  A
C513        H520   1.084       .  S
C514       C1617   1.405   1_455  A
C514        C515   1.406       .  A
C515        C516   1.397       .  A
C515        F522   1.358       .  S
C516        C517   1.404       .  A
C516        H521   1.083       .  S
C517       C1622   1.407   1_455  A
C518       C1621   1.407       .  A
C518        F519   1.358       .  S
C523        C524   1.404       .  A
C523        C528   1.399       .  A
C523        H530   1.083       .  S
C524       C1629   1.407   1_455  A
C525       C1628   1.407       .  A
C525        C526   1.400       .  A
C525        F532   1.358       .  S
C526       C1631   1.405       .  A
C526        H531   1.083       .  S
C527       C1630   1.405   1_455  A
C527        C528   1.407       .  A
C528        F529   1.357       .  S
C533        C534   1.403       .  A
C533        C538   1.397       .  A
C533        H540   1.083       .  S
C534       C1639   1.409   1_455  A
C535       C1638   1.409       .  A
C535        C536   1.398       .  A
C535        F542   1.358       .  S
C536       C1641   1.406       .  A
C536        H541   1.083       .  S
C537       C1640   1.406   1_455  A
C537        C538   1.409       .  A
C538        F539   1.357       .  S
C543       C1648   1.404       .  A
C543        C548   1.399       .  A
C543        H550   1.083       .  S
C544       C1647   1.404   1_455  A
C544        C545   1.408       .  A
C545        C546   1.400       .  A
C545        F552   1.355       .  S
C546        C547   1.403       .  A
C546        H551   1.083       .  S
C547       C1652   1.407   1_455  A
C548       C1651   1.407       .  A
C548        F549   1.358       .  S
N553        C558   1.351   1_455  A
N553        C557   1.353   1_455  A
N553        H585   1.042       .  S
N554        C561   1.353       .  A
N554        C562   1.352       .  A
N555        C560   1.354   1_455  A
N555        C559   1.353       .  A
N555        H586   1.042       .  S
N556        C563   1.349       .  A
N556        C564   1.349       .  A
C557        C565   1.388       .  A
C557        C573   1.416   1_655  A
C558        C574   1.413   1_655  A
C558        C566   1.387       .  A
C559        C567   1.388   1_455  A
C559        C576   1.418       .  A
C560        C575   1.414   1_655  A
C560        C568   1.385       .  A
C561        C573   1.417       .  A
C561        C569   1.386       .  A
C562        C576   1.416       .  A
C562        C570   1.386       .  A
C563        C571   1.387       .  A
C563        C574   1.410       .  A
C564        C572   1.385       .  A
C564        C575   1.408       .  A
C565        C566   1.377       .  A
C565        H577   1.082       .  S
C566        H578   1.082       .  S
C567        C568   1.377       .  A
C567        H579   1.082       .  S
C568        H580   1.082       .  S
C569        C570   1.378       .  A
C569        H581   1.082       .  S
C570        H582   1.082       .  S
C571        C572   1.374       .  A
C571        H583   1.082       .  S
C572        H584   1.082       .  S
C573        C800   1.500       .  S
C574        C793   1.486       .  S
C575        C823   1.491       .  S
C576        C813   1.495       .  S
O587        C598   1.294       .  A
O587       Zr899   2.446       .  S
O588        C599   1.295       .  A
O588       Zr898   2.454   1_455  S
O589        C600   1.291       .  A
O589      Zr1147   2.433       .  S
O590        C601   1.294       .  A
O591       Zr901   2.448   1_554  S
O592       Zr900   2.437       .  S
O593        C599   1.291       .  A
O593       Zr595   2.435       .  S
O594        C598   1.292       .  A
Zr595      O1141   2.441   1_465  S
Zr595       O596   2.341       .  S
Zr595      O1149   2.338   1_465  S
Zr595      O1707   2.340   1_455  S
O596       Zr898   2.334   1_455  S
O596       Zr901   2.346   1_554  S
O597      Zr1147   2.344       .  S
O597      Zr2003   2.333       .  S
C598        C820   1.477       .  S
C599        C810   1.483       .  S
C600        C783   1.472       .  S
C601        C770   1.480       .  S
H602        O603   0.966       .  S
O603      Zr1699   2.340       .  S
O603      Zr2002   2.343       .  S
O603       Zr900   2.354   1_565  S
H604        O605   0.966       .  S
O605       Zr899   2.346       .  S
O606        C629   1.295       .  A
O606       Zr622   2.451       .  S
O607        C630   1.292       .  A
O607       Zr623   2.432       .  S
O608        C631   1.290       .  A
O608       Zr624   2.428       .  S
O609        C632   1.293       .  A
O609       Zr625   2.444   1_565  S
O610        C633   1.292       .  A
O611        C634   1.292       .  A
O612        C635   1.293       .  A
O612      Zr1730   2.447       .  S
O613        C636   1.291       .  A
O613       Zr626   2.434   1_455  S
O614        C635   1.294       .  A
O614       Zr624   2.447       .  S
O615        C636   1.291   1_545  A
O615       Zr625   2.430       .  S
O616        C631   1.292       .  A
O616      Zr1726   2.438       .  S
O617        C634   1.294       .  A
O617      Zr1727   2.451       .  S
O618        C633   1.293       .  A
O618       Zr623   2.442       .  S
O619        C632   1.291       .  A
O619       Zr622   2.431       .  S
O620        C629   1.294       .  A
O620       Zr626   2.447   1_455  S
O621        C630   1.291   1_655  A
Zr622       O864   2.455       .  S
Zr622      O1720   2.438   1_455  S
Zr622       O872   2.338       .  S
Zr622      O1983   2.342   1_455  S
Zr622      O1732   2.342   1_455  S
Zr622       O640   2.340       .  S
Zr623       O863   2.450       .  S
Zr623      O1721   2.451   1_455  S
Zr623      O1977   2.332   1_455  S
Zr623       O881   2.340       .  S
Zr623       O627   2.346       .  S
Zr623      O1742   2.350   1_455  S
Zr624       O868   2.429   1_565  S
Zr624       O879   2.348       .  S
Zr624       O628   2.333       .  S
Zr625       O867   2.432       .  S
Zr625       O872   2.343   1_545  S
Zr625       O640   2.338   1_545  S
Zr626      O1716   2.447       .  S
Zr626      O1732   2.332       .  S
Zr626       O640   2.340   1_655  S
Zr626      O1190   2.345   1_565  S
O628      Zr1726   2.342       .  S
O628      Zr1730   2.332       .  S
C629        C803   1.488       .  S
C630        C790   1.469       .  S
C631        C710   1.467       .  S
C632        C733   1.475       .  S
C633        C740   1.476       .  S
C634        C720   1.478       .  S
C635        C753   1.488       .  S
C636        C763   1.466   1_565  S
H637        O638   0.966       .  S
O638      Zr1727   2.350       .  S
O638      Zr1178   2.343       .  S
H639        O640   0.966       .  S
N641        C646   1.353       .  A
N641        C645   1.351       .  A
N641        H673   1.041       .  S
N642        C649   1.349       .  A
N642        C650   1.351       .  A
N643        C648   1.352       .  A
N643        C647   1.354       .  A
N643        H674   1.042       .  S
N644        C651   1.351       .  A
N644        C652   1.349       .  A
C645        C653   1.388       .  A
C645        C661   1.415       .  A
C646        C662   1.414       .  A
C646        C654   1.386       .  A
C647        C655   1.385       .  A
C647        C664   1.413       .  A
C648        C663   1.414       .  A
C648        C656   1.388       .  A
C649        C661   1.412       .  A
C649        C657   1.387       .  A
C650        C664   1.411       .  A
C650        C658   1.385       .  A
C651        C659   1.386       .  A
C651        C662   1.412       .  A
C652        C660   1.387       .  A
C652        C663   1.411       .  A
C653        C654   1.377       .  A
C653        H665   1.082       .  S
C654        H666   1.082       .  S
C655        C656   1.376       .  A
C655        H667   1.082       .  S
C656        H668   1.082       .  S
C657        C658   1.373       .  A
C657        H669   1.082       .  S
C658        H670   1.082       .  S
C659        C660   1.376       .  A
C659        H671   1.082       .  S
C660        H672   1.082       .  S
C661        C760   1.486       .  S
C662        C750   1.490       .  S
C663        C780   1.485       .  S
C664        C773   1.494       .  S
N675        C680   1.351       .  A
N675        C679   1.353       .  A
N675        H707   1.041       .  S
N676        C683   1.350       .  A
N676        C684   1.349       .  A
N677        C682   1.352       .  A
N677        C681   1.351       .  A
N677        H708   1.041       .  S
N678        C685   1.350       .  A
N678        C686   1.351       .  A
C679        C687   1.388       .  A
C679        C695   1.416       .  A
C680        C696   1.411       .  A
C680        C688   1.386       .  A
C681        C689   1.387       .  A
C681        C698   1.412       .  A
C682        C697   1.413       .  A
C682        C690   1.387       .  A
C683        C695   1.412       .  A
C683        C691   1.386       .  A
C684        C698   1.411       .  A
C684        C692   1.386       .  A
C685        C693   1.386       .  A
C685        C696   1.410       .  A
C686        C694   1.386       .  A
C686        C697   1.412       .  A
C687        C688   1.376       .  A
C687        H699   1.082       .  S
C688        H700   1.082       .  S
C689        C690   1.379       .  A
C689        H701   1.082       .  S
C690        H702   1.082       .  S
C691        C692   1.375       .  A
C691        H703   1.082       .  S
C692        H704   1.082       .  S
C693        C694   1.372       .  A
C693        H705   1.082       .  S
C694        H706   1.082       .  S
C695        C730   1.492       .  S
C696        C713   1.483       .  S
C697        C723   1.490       .  S
C698        C743   1.483       .  S
C709        C710   1.404       .  A
C709        C714   1.399       .  A
C709        H716   1.084       .  S
C710        C987   1.402       .  A
C711        C986   1.405   1_554  A
C711        C712   1.396       .  A
C711        F718   1.358       .  S
C712        C989   1.404   1_554  A
C712        H717   1.083       .  S
C713        C988   1.403       .  A
C713        C714   1.406       .  A
C714        F715   1.358       .  S
C719        C996   1.405       .  A
C719        C724   1.401       .  A
C719        H726   1.083       .  S
C720        C995   1.405       .  A
C720        C721   1.407       .  A
C721        C722   1.398       .  A
C721        F728   1.357       .  S
C722        C723   1.404       .  A
C722        H727   1.083       .  S
C723       C1000   1.407       .  A
C724        C999   1.406       .  A
C724        F725   1.357       .  S
C729        C730   1.406       .  A
C729        C734   1.398       .  A
C729        H736   1.083       .  S
C730       C1007   1.408       .  A
C731       C1006   1.408   1_554  A
C731        C732   1.399       .  A
C731        F738   1.358       .  S
C732       C1009   1.404   1_554  A
C732        H737   1.084       .  S
C733       C1008   1.404       .  A
C733        C734   1.407       .  A
C734        F735   1.358       .  S
C739        C740   1.405       .  A
C739        C744   1.401       .  A
C739        H746   1.083       .  S
C740       C1017   1.405       .  A
C741       C1016   1.407   1_554  A
C741        C742   1.394       .  A
C741        F748   1.356       .  S
C742       C1019   1.403   1_554  A
C742        H747   1.083       .  S
C743       C1018   1.400       .  A
C743        C744   1.406       .  A
C744        F745   1.357       .  S
C749        C750   1.404       .  A
C749        C754   1.400       .  A
C749        H756   1.083       .  S
C751        C752   1.400       .  A
C751        F758   1.357       .  S
C752        C753   1.406   1_545  A
C752        H757   1.082       .  S
C754        F755   1.357       .  S
C759        C764   1.397       .  A
C759        H766   1.083       .  S
C760        C761   1.404       .  A
C761        C762   1.391       .  A
C761        F768   1.357       .  S
C762        H767   1.084       .  S
C763        C764   1.406   1_545  A
C764        F765   1.358       .  S
C769        C774   1.399       .  A
C769        H776   1.084       .  S
C770        C771   1.407       .  A
C771        C772   1.400       .  A
C771        F778   1.358       .  S
C772        C773   1.405       .  A
C772        H777   1.083       .  S
C774        F775   1.358       .  S
C779        C780   1.404       .  A
C779        C784   1.397       .  A
C779        H786   1.083       .  S
C781        C782   1.398       .  A
C781        F788   1.358       .  S
C782        H787   1.083       .  S
C783        C784   1.406       .  A
C784        F785   1.358       .  S
C789       C1894   1.404       .  A
C789        C794   1.395       .  A
C789        H796   1.084       .  S
C790       C1893   1.404   1_455  A
C790        C791   1.405       .  A
C791        C792   1.394       .  A
C791        F798   1.358       .  S
C792        C793   1.404       .  A
C792        H797   1.083       .  S
C793       C1898   1.408   1_455  A
C794       C1897   1.408       .  A
C794        F795   1.358       .  S
C799        C800   1.407       .  A
C799        C804   1.403       .  A
C799        H806   1.083       .  S
C800       C1905   1.408   1_455  A
C801       C1904   1.408       .  A
C801        C802   1.400       .  A
C801        F808   1.357       .  S
C802       C1907   1.406       .  A
C802        H807   1.083       .  S
C803       C1906   1.406   1_455  A
C803        C804   1.410       .  A
C804        F805   1.358       .  S
C809        C810   1.405       .  A
C809        C814   1.401       .  A
C809        H816   1.083       .  S
C810       C1915   1.409   1_455  A
C811       C1914   1.409       .  A
C811        C812   1.399       .  A
C811        F818   1.357       .  S
C812       C1917   1.405       .  A
C812        H817   1.083       .  S
C813       C1916   1.405   1_455  A
C813        C814   1.409       .  A
C814        F815   1.358       .  S
C819       C1924   1.405       .  A
C819        C824   1.401       .  A
C819        H826   1.084       .  S
C820       C1923   1.405   1_455  A
C820        C821   1.405       .  A
C821        C822   1.397       .  A
C821        F828   1.355       .  S
C822        C823   1.403       .  A
C822        H827   1.083       .  S
C823       C1928   1.409   1_455  A
C824       C1927   1.409       .  A
C824        F825   1.358       .  S
N829        C834   1.351       .  A
N829        C833   1.352       .  A
N829        H861   1.039   1_655  S
N830        C837   1.351   1_655  A
N830        C838   1.351   1_655  A
N831        C836   1.356   1_455  A
N831        C835   1.354   1_455  A
N831        H862   1.042       .  S
N832        C839   1.351   1_655  A
N832        C840   1.353   1_655  A
C833        C841   1.388       .  A
C833        C849   1.414       .  A
C834        C850   1.414   1_655  A
C834        C842   1.388       .  A
C835        C843   1.386       .  A
C835        C852   1.418   1_655  A
C836        C851   1.422   1_655  A
C836        C844   1.388       .  A
C837        C849   1.411   1_455  A
C837        C845   1.385       .  A
C838        C852   1.413       .  A
C838        C846   1.387       .  A
C839        C847   1.385       .  A
C839        C850   1.413       .  A
C840        C848   1.386       .  A
C840        C851   1.415       .  A
C841        C842   1.378       .  A
C841        H853   1.083       .  S
C842        H854   1.082       .  S
C843        C844   1.379       .  A
C843        H855   1.082       .  S
C844        H856   1.082       .  S
C845        C846   1.372       .  A
C845        H857   1.082       .  S
C846        H858   1.082       .  S
C847        C848   1.373       .  A
C847        H859   1.082       .  S
C848        H860   1.082       .  S
C849       C1076   1.484       .  S
C850       C1069   1.486       .  S
C851       C1099   1.507       .  S
C852       C1089   1.495       .  S
O863        C874   1.294       .  A
O864        C875   1.295       .  A
O865        C876   1.292       .  A
O865      Zr1423   2.437       .  S
O866        C877   1.293       .  A
O869        C875   1.290       .  A
O869       Zr871   2.425   1_565  S
O870        C874   1.295       .  A
Zr871      O1417   2.443   1_455  S
Zr871       O872   2.341   1_545  S
Zr871      O1425   2.337   1_455  S
Zr871      O1983   2.346   1_445  S
O873      Zr1423   2.335       .  S
O873      Zr1727   2.332       .  S
C874       C1096   1.490       .  S
C875       C1086   1.479       .  S
C876       C1059   1.472       .  S
C877       C1046   1.479       .  S
H878        O879   0.965       .  S
O879      Zr1975   2.346   1_565  S
O879      Zr1726   2.342       .  S
H880        O881   0.966       .  S
O882        C905   1.291       .  A
O882       Zr898   2.431   1_556  S
O883        C906   1.293       .  A
O883       Zr899   2.439   1_556  S
O884        C907   1.294       .  A
O884       Zr900   2.446   1_566  S
O885        C908   1.293       .  A
O885       Zr901   2.440       .  S
O886        C909   1.292       .  A
O887        C910   1.292   1_556  A
O888        C911   1.294       .  A
O888      Zr2006   2.452   1_545  S
O889        C912   1.289       .  A
O889       Zr902   2.422   1_445  S
O890        C911   1.295       .  A
O890       Zr900   2.458   1_556  S
O891        C912   1.292       .  A
O891       Zr901   2.437   1_545  S
O892        C907   1.291   1_554  A
O892      Zr2002   2.431       .  S
O893        C910   1.295       .  A
O893      Zr2003   2.453       .  S
O894        C909   1.291       .  A
O894       Zr899   2.431   1_556  S
O895        C908   1.293       .  A
O895       Zr898   2.441   1_456  S
O896        C905   1.291       .  A
O896       Zr902   2.433       .  S
O897        C906   1.292       .  A
Zr898      O1996   2.431       .  S
Zr898      O1707   2.343       .  S
Zr898      O2008   2.347   1_554  S
Zr898       O916   2.345   1_654  S
Zr899      O1997   2.453   1_455  S
Zr899      O1701   2.333   1_455  S
Zr899       O903   2.339   1_554  S
Zr899      O2018   2.346   1_454  S
Zr900       O904   2.331   1_544  S
Zr901       O916   2.346       .  S
Zr902      O1992   2.452   1_565  S
Zr902      O2008   2.328       .  S
Zr902       O916   2.347   1_655  S
Zr902      O1466   2.330   1_565  S
O904      Zr2002   2.347   1_556  S
O904      Zr2006   2.328       .  S
C905       C1079   1.467       .  S
C906       C1066   1.472       .  S
C907        C986   1.472       .  S
C908       C1009   1.476       .  S
C909       C1016   1.477       .  S
C910        C996   1.480       .  S
C911       C1029   1.491       .  S
C912       C1039   1.467       .  S
H913        O914   0.966       .  S
O914      Zr2003   2.346   1_556  S
O914      Zr1454   2.343       .  S
H915        O916   0.964       .  S
N917        C922   1.355       .  A
N917        C921   1.351       .  A
N917        H949   1.040       .  S
N918        C925   1.351       .  A
N918        C926   1.352       .  A
N919        C924   1.354       .  A
N919        C923   1.356       .  A
N919        H950   1.041       .  S
N920        C927   1.353       .  A
N920        C928   1.351       .  A
C921        C929   1.387       .  A
C921        C937   1.414       .  A
C922        C938   1.419       .  A
C922        C930   1.388       .  A
C923        C931   1.387       .  A
C923        C940   1.419       .  A
C924        C939   1.416       .  A
C924        C932   1.386       .  A
C925        C937   1.413       .  A
C925        C933   1.387       .  A
C926        C940   1.413       .  A
C926        C934   1.386       .  A
C927        C935   1.386       .  A
C927        C938   1.416       .  A
C928        C936   1.386       .  A
C928        C939   1.413       .  A
C929        C930   1.376       .  A
C929        H941   1.083       .  S
C930        H942   1.082       .  S
C931        C932   1.375       .  A
C931        H943   1.082       .  S
C932        H944   1.082       .  S
C933        C934   1.373       .  A
C933        H945   1.082       .  S
C934        H946   1.082       .  S
C935        C936   1.373       .  A
C935        H947   1.082       .  S
C936        H948   1.082       .  S
C937       C1036   1.484       .  S
C938       C1026   1.499       .  S
C939       C1056   1.489       .  S
C940       C1049   1.500       .  S
N951        C956   1.351       .  A
N951        C955   1.354       .  A
N951        H983   1.042       .  S
N952        C959   1.347       .  A
N952        C960   1.348       .  A
N953        C958   1.351   1_556  A
N953        C957   1.351   1_556  A
N953        H984   1.042       .  S
N954        C961   1.350       .  A
N954        C962   1.351       .  A
C955        C963   1.386   1_556  A
C955        C971   1.415       .  A
C956        C972   1.414       .  A
C956        C964   1.387   1_556  A
C957        C965   1.387       .  A
C957        C974   1.412   1_554  A
C958        C973   1.411   1_554  A
C958        C966   1.386       .  A
C959        C971   1.406       .  A
C959        C967   1.385       .  A
C960        C974   1.409       .  A
C960        C968   1.387       .  A
C961        C969   1.387       .  A
C961        C972   1.413       .  A
C962        C970   1.386       .  A
C962        C973   1.412       .  A
C963        C964   1.377       .  A
C963        H975   1.082       .  S
C964        H976   1.082       .  S
C965        C966   1.379       .  A
C965        H977   1.082       .  S
C966        H978   1.082       .  S
C967        C968   1.375       .  A
C967        H979   1.082       .  S
C968        H980   1.082       .  S
C969        C970   1.375       .  A
C969        H981   1.082       .  S
C970        H982   1.082       .  S
C971       C1006   1.488       .  S
C972        C989   1.487       .  S
C973        C999   1.489   1_556  S
C974       C1019   1.486       .  S
C985        C986   1.404       .  A
C985        C990   1.399       .  A
C985        H992   1.084       .  S
C987        C988   1.394       .  A
C987        F994   1.357       .  S
C988        H993   1.083       .  S
C989        C990   1.407       .  A
C990        F991   1.358       .  S
C995       C1000   1.401       .  A
C995       H1002   1.083       .  S
C996        C997   1.408   1_554  A
C997        C998   1.400       .  A
C997       F1004   1.356       .  S
C998        C999   1.404   1_556  A
C998       H1003   1.084       .  S
C1000      F1001   1.357       .  S
C1005      C1006   1.403       .  A
C1005      C1010   1.398       .  A
C1005      H1012   1.083       .  S
C1007      C1008   1.397       .  A
C1007      F1014   1.357       .  S
C1008      H1013   1.084       .  S
C1009      C1010   1.407       .  A
C1010      F1011   1.357       .  S
C1015      C1016   1.405       .  A
C1015      C1020   1.397       .  A
C1015      H1022   1.083       .  S
C1017      C1018   1.395       .  A
C1017      F1024   1.353       .  S
C1018      H1023   1.083       .  S
C1019      C1020   1.406       .  A
C1020      F1021   1.358       .  S
C1025      C1026   1.407       .  A
C1025      C1030   1.402       .  A
C1025      H1032   1.083       .  S
C1027      C1028   1.404       .  A
C1027      F1034   1.358       .  S
C1028      C1029   1.406       .  A
C1028      H1033   1.080       .  S
C1030      F1031   1.357       .  S
C1035      C1040   1.394       .  A
C1035      H1042   1.083       .  S
C1036      C1037   1.406       .  A
C1037      C1038   1.396       .  A
C1037      F1044   1.357       .  S
C1038      H1043   1.084       .  S
C1039      C1040   1.404   1_545  A
C1040      F1041   1.358       .  S
C1045      C1050   1.396       .  A
C1045      H1052   1.084       .  S
C1046      C1047   1.405       .  A
C1047      C1048   1.398       .  A
C1047      F1054   1.357       .  S
C1048      C1049   1.406       .  A
C1048      H1053   1.083       .  S
C1050      F1051   1.358       .  S
C1055      C1056   1.405       .  A
C1055      C1060   1.401       .  A
C1055      H1062   1.083       .  S
C1057      C1058   1.396       .  A
C1057      F1064   1.357       .  S
C1058      H1063   1.083       .  S
C1059      C1060   1.407       .  A
C1060      F1061   1.358       .  S
C1065      C2170   1.403       .  A
C1065      C1070   1.396       .  A
C1065      H1072   1.084       .  S
C1066      C2169   1.403   1_455  A
C1066      C1067   1.406       .  A
C1067      C1068   1.398       .  A
C1067      F1074   1.358       .  S
C1068      C1069   1.404       .  A
C1068      H1073   1.083       .  S
C1069      C2174   1.406   1_455  A
C1070      C2173   1.406       .  A
C1070      F1071   1.357       .  S
C1075      C1076   1.402   1_455  A
C1075      C1080   1.394       .  A
C1075      H1082   1.083       .  S
C1076      C2181   1.407       .  A
C1077      C2180   1.407       .  A
C1077      C1078   1.398       .  A
C1077      F1084   1.358       .  S
C1078      C2183   1.403       .  A
C1078      H1083   1.082       .  S
C1079      C2182   1.403       .  A
C1079      C1080   1.404   1_655  A
C1080      F1081   1.358       .  S
C1085      C1086   1.404       .  A
C1085      C1090   1.399       .  A
C1085      H1092   1.083       .  S
C1086      C2191   1.408   1_455  A
C1087      C2190   1.408       .  A
C1087      C1088   1.397       .  A
C1087      F1094   1.358       .  S
C1088      C2193   1.406       .  A
C1088      H1093   1.083       .  S
C1089      C2192   1.406   1_455  A
C1089      C1090   1.408       .  A
C1090      F1091   1.357       .  S
C1095      C2200   1.405       .  A
C1095      C1100   1.402       .  A
C1095      H1102   1.083       .  S
C1096      C2199   1.405   1_455  A
C1096      C1097   1.408       .  A
C1097      C1098   1.400       .  A
C1097      F1104   1.353       .  S
C1098      C1099   1.406       .  A
C1098      H1103   1.083       .  S
C1099      C2204   1.413   1_455  A
C1100      C2203   1.413       .  A
C1100      F1101   1.357       .  S
N1105      C1110   1.353       .  A
N1105      C1109   1.353       .  A
N1105      H1137   1.040       .  S
N1106      C1113   1.352       .  A
N1106      C1114   1.351       .  A
N1107      C1112   1.353       .  A
N1107      C1111   1.353       .  A
N1107      H1138   1.041       .  S
N1108      C1115   1.350       .  A
N1108      C1116   1.351       .  A
C1109      C1117   1.388       .  A
C1109      C1125   1.418       .  A
C1110      C1126   1.417       .  A
C1110      C1118   1.387       .  A
C1111      C1119   1.387       .  A
C1111      C1128   1.415       .  A
C1112      C1127   1.416       .  A
C1112      C1120   1.387       .  A
C1113      C1125   1.415       .  A
C1113      C1121   1.387       .  A
C1114      C1128   1.411       .  A
C1114      C1122   1.385       .  A
C1115      C1123   1.387       .  A
C1115      C1126   1.411       .  A
C1116      C1124   1.386       .  A
C1116      C1127   1.410       .  A
C1117      C1118   1.378       .  A
C1117      H1129   1.082       .  S
C1118      H1130   1.082       .  S
C1119      C1120   1.377       .  A
C1119      H1131   1.082       .  S
C1120      H1132   1.082       .  S
C1121      C1122   1.373       .  A
C1121      H1133   1.082       .  S
C1122      H1134   1.082       .  S
C1123      C1124   1.373       .  A
C1123      H1135   1.082       .  S
C1124      H1136   1.082       .  S
C1125      C1352   1.495       .  S
C1126      C1345   1.488       .  S
C1127      C1375   1.494       .  S
C1128      C1365   1.489       .  S
O1139      C1150   1.294       .  A
O1139     Zr1451   2.447       .  S
O1140      C1151   1.293       .  A
O1140     Zr1450   2.442       .  S
O1141      C1152   1.293       .  A
O1142      C1153   1.292       .  A
O1142     Zr1699   2.438       .  S
O1143      C1705   1.293       .  A
O1143     Zr1453   2.442       .  S
O1144      C1704   1.293       .  A
O1144     Zr1452   2.443       .  S
O1145      C1151   1.293       .  A
O1145     Zr1147   2.443       .  S
O1146      C1150   1.291       .  A
O1146     Zr1699   2.431   1_545  S
Zr1147     O1694   2.448       .  S
Zr1147     O1698   2.442       .  S
Zr1147     O1148   2.343       .  S
Zr1147     O1709   2.346       .  S
O1148     Zr1450   2.338       .  S
O1148     Zr1453   2.343       .  S
O1149     Zr2004   2.345       .  S
C1150      C1372   1.478       .  S
C1151      C1362   1.476       .  S
C1152      C1335   1.476       .  S
C1152      O1696   1.292       .  A
C1153      C1322   1.477       .  S
C1153      O1695   1.294       .  A
H1154      O1155   0.966       .  S
O1155     Zr1452   2.351       .  S
H1156      O1157   0.963       .  S
O1157     Zr1699   2.349   1_545  S
O1157     Zr1451   2.333       .  S
O1157     Zr2005   2.342   1_544  S
O1158      C1181   1.294       .  A
O1158     Zr1174   2.450       .  S
O1159      C1182   1.291       .  A
O1159     Zr1175   2.429       .  S
O1160      C1183   1.292       .  A
O1160     Zr1176   2.439       .  S
O1161      C1184   1.292       .  A
O1161     Zr1177   2.440       .  S
O1162      C1185   1.294       .  A
O1162     Zr1729   2.448       .  S
O1163      C1186   1.290       .  A
O1163     Zr1728   2.427   1_545  S
O1164      C1187   1.292       .  A
O1165      C1188   1.292       .  A
O1165     Zr1178   2.437       .  S
O1166      C1187   1.293       .  A
O1166     Zr1176   2.448       .  S
O1167      C1188   1.291       .  A
O1167     Zr1177   2.430       .  S
O1168      C1183   1.292       .  A
O1169      C1186   1.294       .  A
O1170      C1185   1.292       .  A
O1170     Zr1175   2.437       .  S
O1171      C1184   1.294       .  A
O1171     Zr1174   2.446       .  S
O1172      C1181   1.292       .  A
O1172     Zr1178   2.435       .  S
O1173      C1182   1.293       .  A
O1173     Zr1730   2.441   1_545  S
Zr1174     O1416   2.448       .  S
Zr1174     O1424   2.340       .  S
Zr1174     O1192   2.330       .  S
Zr1175     O1415   2.454       .  S
Zr1175     O1433   2.334       .  S
Zr1175     O1179   2.345       .  S
Zr1176     O1420   2.444       .  S
Zr1176     O1715   2.437       .  S
Zr1176     O1977   2.340       .  S
Zr1176     O1431   2.351       .  S
Zr1176     O1180   2.339       .  S
Zr1176     O1742   2.337       .  S
Zr1177     O1419   2.446       .  S
Zr1177     O1714   2.438       .  S
Zr1177     O1424   2.343       .  S
Zr1177     O1985   2.343       .  S
Zr1177     O1731   2.341       .  S
Zr1177     O1192   2.335       .  S
Zr1178     O1725   2.428       .  S
Zr1178     O1731   2.348       .  S
Zr1178     O1192   2.331       .  S
O1179     Zr1729   2.335       .  S
O1179     Zr1730   2.347   1_545  S
C1181      C1355   1.480       .  S
C1182      C1342   1.471       .  S
C1183      C1262   1.470       .  S
C1184      C1285   1.477       .  S
C1185      C1292   1.485       .  S
C1186      C1272   1.473       .  S
C1187      C1305   1.480       .  S
C1188      C1315   1.471       .  S
H1189      O1190   0.965       .  S
O1190     Zr1728   2.331   1_545  S
H1191      O1192   0.965       .  S
N1193      C1198   1.356   1_545  A
N1193      C1197   1.351   1_545  A
N1193      H1225   1.041       .  S
N1194      C1201   1.349       .  A
N1194      C1202   1.351       .  A
N1195      C1200   1.353       .  A
N1195      C1199   1.356       .  A
N1195      H1226   1.041       .  S
N1196      C1203   1.353       .  A
N1196      C1204   1.350       .  A
C1197      C1205   1.387       .  A
C1197      C1213   1.413   1_565  A
C1198      C1214   1.416   1_565  A
C1198      C1206   1.386       .  A
C1199      C1207   1.386   1_545  A
C1199      C1216   1.417       .  A
C1200      C1215   1.417       .  A
C1200      C1208   1.387   1_545  A
C1201      C1213   1.410       .  A
C1201      C1209   1.387       .  A
C1202      C1216   1.412       .  A
C1202      C1210   1.387       .  A
C1203      C1211   1.385       .  A
C1203      C1214   1.414       .  A
C1204      C1212   1.387       .  A
C1204      C1215   1.414       .  A
C1205      C1206   1.377       .  A
C1205      H1217   1.082       .  S
C1206      H1218   1.082       .  S
C1207      C1208   1.375       .  A
C1207      H1219   1.082       .  S
C1208      H1220   1.082       .  S
C1209      C1210   1.375       .  A
C1209      H1221   1.082       .  S
C1210      H1222   1.082       .  S
C1211      C1212   1.374       .  A
C1211      H1223   1.082       .  S
C1212      H1224   1.082       .  S
C1213      C1312   1.480       .  S
C1214      C1302   1.501   1_545  S
C1215      C1332   1.492       .  S
C1216      C1325   1.495       .  S
N1227      C1232   1.351       .  A
N1227      C1231   1.353       .  A
N1227      H1259   1.042       .  S
N1228      C1235   1.349       .  A
N1228      C1236   1.350       .  A
N1229      C1234   1.352       .  A
N1229      C1233   1.352       .  A
N1229      H1260   1.042       .  S
N1230      C1237   1.350       .  A
N1230      C1238   1.350       .  A
C1231      C1239   1.387       .  A
C1231      C1247   1.413       .  A
C1232      C1248   1.412       .  A
C1232      C1240   1.387       .  A
C1233      C1241   1.388       .  A
C1233      C1250   1.416       .  A
C1234      C1249   1.412       .  A
C1234      C1242   1.386       .  A
C1235      C1247   1.410       .  A
C1235      C1243   1.385       .  A
C1236      C1250   1.414       .  A
C1236      C1244   1.387       .  A
C1237      C1245   1.386       .  A
C1237      C1248   1.411       .  A
C1238      C1246   1.387       .  A
C1238      C1249   1.411       .  A
C1239      C1240   1.377       .  A
C1239      H1251   1.082       .  S
C1240      H1252   1.082       .  S
C1241      C1242   1.377       .  A
C1241      H1253   1.082       .  S
C1242      H1254   1.082       .  S
C1243      C1244   1.376       .  A
C1243      H1255   1.082       .  S
C1244      H1256   1.082       .  S
C1245      C1246   1.375       .  A
C1245      H1257   1.082       .  S
C1246      H1258   1.082       .  S
C1247      C1282   1.489       .  S
C1248      C1265   1.488       .  S
C1249      C1275   1.487       .  S
C1250      C1295   1.494       .  S
C1261      C1262   1.403       .  A
C1261      C1266   1.397       .  A
C1261      H1268   1.084       .  S
C1262      C1539   1.404       .  A
C1263      C1538   1.403   1_554  A
C1263      C1264   1.395       .  A
C1263      F1270   1.358       .  S
C1264      C1541   1.405   1_554  A
C1264      H1269   1.083       .  S
C1265      C1540   1.404       .  A
C1265      C1266   1.408       .  A
C1266      F1267   1.358       .  S
C1271      C1548   1.401   1_554  A
C1271      C1276   1.395       .  A
C1271      H1278   1.084       .  S
C1272      C1547   1.404       .  A
C1272      C1273   1.407       .  A
C1273      C1274   1.395       .  A
C1273      F1280   1.357       .  S
C1274      C1275   1.403       .  A
C1274      H1279   1.083       .  S
C1275      C1552   1.407       .  A
C1276      C1551   1.406   1_554  A
C1276      F1277   1.357       .  S
C1281      C1282   1.405       .  A
C1281      C1286   1.402       .  A
C1281      H1288   1.083       .  S
C1282      C1559   1.405       .  A
C1283      C1558   1.405   1_554  A
C1283      C1284   1.399       .  A
C1283      F1290   1.357       .  S
C1284      C1561   1.404   1_554  A
C1284      H1289   1.083       .  S
C1285      C1560   1.402       .  A
C1285      C1286   1.410       .  A
C1286      F1287   1.358       .  S
C1291      C1292   1.406       .  A
C1291      C1296   1.400       .  A
C1291      H1298   1.083       .  S
C1292      C1569   1.410       .  A
C1293      C1568   1.406   1_554  A
C1293      C1294   1.397       .  A
C1293      F1300   1.353       .  S
C1294      C1571   1.403   1_554  A
C1294      H1299   1.083       .  S
C1295      C1570   1.404       .  A
C1295      C1296   1.408       .  A
C1296      F1297   1.358       .  S
C1301      C1302   1.408       .  A
C1301      C1306   1.403       .  A
C1301      H1308   1.083       .  S
C1302      C1855   1.408   1_565  A
C1303      C1854   1.406       .  A
C1303      C1304   1.400       .  A
C1303      F1310   1.357       .  S
C1304      C1305   1.404       .  A
C1304      H1309   1.082       .  S
C1305      C1858   1.408       .  A
C1306      C1857   1.409       .  A
C1306      F1307   1.357       .  S
C1311      C1864   1.407       .  A
C1311      C1316   1.400       .  A
C1311      H1318   1.083       .  S
C1312      C1863   1.403   1_545  A
C1312      C1313   1.404       .  A
C1313      C1314   1.394       .  A
C1313      F1320   1.357       .  S
C1314      C1867   1.402       .  A
C1314      H1319   1.084       .  S
C1315      C1866   1.402       .  A
C1315      C1316   1.408       .  A
C1316      F1317   1.358       .  S
C1321      C1874   1.404       .  A
C1321      C1326   1.400       .  A
C1321      H1328   1.083       .  S
C1322      C1873   1.404       .  A
C1322      C1323   1.406   1_565  A
C1323      C1324   1.399       .  A
C1323      F1330   1.358       .  S
C1324      C1325   1.405       .  A
C1324      H1329   1.083       .  S
C1325      C1878   1.409   1_545  A
C1326      C1877   1.408       .  A
C1326      F1327   1.358       .  S
C1331      C1332   1.405       .  A
C1331      C1336   1.397       .  A
C1331      H1338   1.083       .  S
C1332      C1885   1.408   1_545  A
C1333      C1884   1.406       .  A
C1333      C1334   1.397       .  A
C1333      F1340   1.358       .  S
C1334      C1887   1.404       .  A
C1334      H1339   1.083       .  S
C1335      C1886   1.404   1_545  A
C1335      C1336   1.407       .  A
C1336      F1337   1.358       .  S
C1341      C1346   1.398       .  A
C1341      H1348   1.084       .  S
C1342      C1343   1.405       .  A
C1343      C1344   1.394       .  A
C1343      F1350   1.358       .  S
C1344      C1345   1.403       .  A
C1344      H1349   1.083       .  S
C1346      F1347   1.358       .  S
C1351      C1352   1.406       .  A
C1351      C1356   1.400       .  A
C1351      H1358   1.083       .  S
C1353      C1354   1.398       .  A
C1353      F1360   1.358       .  S
C1354      H1359   1.082       .  S
C1355      C1356   1.407       .  A
C1356      F1357   1.358       .  S
C1361      C1362   1.404       .  A
C1361      C1366   1.398       .  A
C1361      H1368   1.083       .  S
C1363      C1364   1.400       .  A
C1363      F1370   1.357       .  S
C1364      H1369   1.083       .  S
C1365      C1366   1.405       .  A
C1366      F1367   1.357       .  S
C1371      C1376   1.400       .  A
C1371      H1378   1.083       .  S
C1372      C1373   1.404       .  A
C1373      C1374   1.395       .  A
C1373      F1380   1.353       .  S
C1374      C1375   1.404       .  A
C1374      H1379   1.083       .  S
C1376      F1377   1.358       .  S
N1381      C1386   1.353       .  A
N1381      C1385   1.353       .  A
N1381      H1413   1.041       .  S
N1382      C1389   1.350       .  A
N1382      C1390   1.351       .  A
N1383      C1388   1.353       .  A
N1383      C1387   1.352       .  A
N1383      H1414   1.042       .  S
N1384      C1391   1.350       .  A
N1384      C1392   1.349       .  A
C1385      C1393   1.387       .  A
C1385      C1401   1.415       .  A
C1386      C1402   1.414       .  A
C1386      C1394   1.387       .  A
C1387      C1395   1.388       .  A
C1387      C1404   1.416       .  A
C1388      C1403   1.413       .  A
C1388      C1396   1.386       .  A
C1389      C1401   1.413       .  A
C1389      C1397   1.386       .  A
C1390      C1404   1.414       .  A
C1390      C1398   1.387       .  A
C1391      C1399   1.386       .  A
C1391      C1402   1.411       .  A
C1392      C1400   1.386       .  A
C1392      C1403   1.409       .  A
C1393      C1394   1.377       .  A
C1393      H1405   1.082       .  S
C1394      H1406   1.082       .  S
C1395      C1396   1.377       .  A
C1395      H1407   1.082       .  S
C1396      H1408   1.082       .  S
C1397      C1398   1.376       .  A
C1397      H1409   1.082       .  S
C1398      H1410   1.082       .  S
C1399      C1400   1.374       .  A
C1399      H1411   1.082       .  S
C1400      H1412   1.082       .  S
C1401      C1628   1.491       .  S
C1402      C1621   1.489       .  S
C1403      C1651   1.489       .  S
C1404      C1641   1.495       .  S
O1415      C1426   1.295       .  A
O1416      C1427   1.295       .  A
O1417      C1428   1.293       .  A
O1418      C1429   1.292   1_565  A
O1418     Zr1975   2.437   1_565  S
O1419      C1981   1.294       .  A
O1420      C1980   1.293       .  A
O1421      C1427   1.290       .  A
O1421     Zr1423   2.426       .  S
O1422      C1426   1.292       .  A
O1422     Zr1975   2.441       .  S
Zr1423     O1970   2.441       .  S
Zr1423     O1974   2.450       .  S
Zr1423     O1424   2.346       .  S
Zr1423     O1985   2.341       .  S
O1425     Zr1728   2.346   1_545  S
C1426      C1648   1.480       .  S
C1427      C1638   1.478       .  S
C1428      C1611   1.475       .  S
C1428      O1972   1.291       .  A
C1429      C1598   1.471       .  S
C1429      O1971   1.291       .  A
H1430      O1431   0.966       .  S
H1432      O1433   0.965       .  S
O1433     Zr1975   2.343       .  S
O1433     Zr1729   2.340       .  S
O1434      C1457   1.294       .  A
O1434     Zr1450   2.447   1_556  S
O1435      C1458   1.293       .  A
O1435     Zr1451   2.443   1_556  S
O1436      C1459   1.290   1_556  A
O1436     Zr1452   2.426   1_556  S
O1437      C1460   1.294       .  A
O1437     Zr1453   2.447   1_556  S
O1438      C1461   1.292       .  A
O1438     Zr2005   2.442   1_545  S
O1439      C1462   1.291       .  A
O1439     Zr2004   2.432       .  S
O1440      C1463   1.292       .  A
O1441      C1464   1.289       .  A
O1441     Zr1454   2.424       .  S
O1442      C1463   1.294       .  A
O1442     Zr1452   2.449   1_556  S
O1443      C1464   1.292       .  A
O1443     Zr1453   2.438   1_556  S
O1444      C1459   1.291       .  A
O1445      C1462   1.290       .  A
O1446      C1461   1.295       .  A
O1446     Zr1451   2.451   1_556  S
O1447      C1460   1.292   1_554  A
O1447     Zr1450   2.441       .  S
O1448      C1457   1.292       .  A
O1448     Zr1454   2.442       .  S
O1449      C1458   1.291       .  A
O1449     Zr2006   2.430   1_545  S
Zr1450     O1468   2.337   1_554  S
Zr1451     O1455   2.327   1_554  S
Zr1452     O1991   2.441   1_554  S
Zr1452     O1701   2.338       .  S
Zr1452     O1456   2.340   1_554  S
Zr1452     O2018   2.333   1_554  S
Zr1453     O1990   2.437   1_554  S
Zr1453     O1709   2.347       .  S
Zr1453     O2007   2.336   1_554  S
Zr1453     O1468   2.340   1_554  S
Zr1454     O2001   2.435       .  S
Zr1454     O2007   2.341       .  S
Zr1454     O1468   2.342       .  S
O1455     Zr2005   2.332   1_545  S
O1455     Zr2006   2.343   1_545  S
C1457      C1631   1.480       .  S
C1458      C1618   1.475       .  S
C1459      C1538   1.462   1_554  S
C1460      C1561   1.477       .  S
C1461      C1568   1.485       .  S
C1462      C1548   1.460   1_554  S
C1463      C1581   1.484       .  S
C1464      C1591   1.467       .  S
H1465      O1466   0.965       .  S
O1466     Zr2004   2.340   1_556  S
H1467      O1468   0.966       .  S
N1469      C1474   1.355       .  A
N1469      C1473   1.352       .  A
N1469      H1501   1.041       .  S
N1470      C1477   1.348       .  A
N1470      C1478   1.349       .  A
N1471      C1476   1.350   1_545  A
N1471      C1475   1.352   1_545  A
N1471      H1502   1.041       .  S
N1472      C1479   1.353       .  A
N1472      C1480   1.352       .  A
C1473      C1481   1.387   1_545  A
C1473      C1489   1.415       .  A
C1474      C1490   1.416       .  A
C1474      C1482   1.386   1_545  A
C1475      C1483   1.386       .  A
C1475      C1492   1.412   1_565  A
C1476      C1491   1.414   1_565  A
C1476      C1484   1.388       .  A
C1477      C1489   1.409       .  A
C1477      C1485   1.387       .  A
C1478      C1492   1.409       .  A
C1478      C1486   1.386       .  A
C1479      C1487   1.384       .  A
C1479      C1490   1.414       .  A
C1480      C1488   1.387       .  A
C1480      C1491   1.416       .  A
C1481      C1482   1.377       .  A
C1481      H1493   1.082       .  S
C1482      H1494   1.082       .  S
C1483      C1484   1.376       .  A
C1483      H1495   1.082       .  S
C1484      H1496   1.082       .  S
C1485      C1486   1.373       .  A
C1485      H1497   1.082       .  S
C1486      H1498   1.082       .  S
C1487      C1488   1.376       .  A
C1487      H1499   1.082       .  S
C1488      H1500   1.082       .  S
C1489      C1588   1.483       .  S
C1490      C1578   1.501       .  S
C1491      C1608   1.492       .  S
C1492      C1601   1.485       .  S
N1503      C1508   1.353       .  A
N1503      C1507   1.351       .  A
N1503      H1535   1.040       .  S
N1504      C1511   1.352       .  A
N1504      C1512   1.353       .  A
N1505      C1510   1.351   1_556  A
N1505      C1509   1.353       .  A
N1505      H1536   1.040       .  S
N1506      C1513   1.348       .  A
N1506      C1514   1.347       .  A
C1507      C1515   1.388   1_556  A
C1507      C1523   1.414       .  A
C1508      C1524   1.413       .  A
C1508      C1516   1.386   1_556  A
C1509      C1517   1.387   1_556  A
C1509      C1526   1.415       .  A
C1510      C1525   1.412   1_554  A
C1510      C1518   1.387       .  A
C1511      C1523   1.414       .  A
C1511      C1519   1.385       .  A
C1512      C1526   1.417       .  A
C1512      C1520   1.386       .  A
C1513      C1521   1.387       .  A
C1513      C1524   1.408       .  A
C1514      C1522   1.387       .  A
C1514      C1525   1.406       .  A
C1515      C1516   1.375       .  A
C1515      H1527   1.082       .  S
C1516      H1528   1.082       .  S
C1517      C1518   1.375       .  A
C1517      H1529   1.082       .  S
C1518      H1530   1.083       .  S
C1519      C1520   1.375       .  A
C1519      H1531   1.082       .  S
C1520      H1532   1.082       .  S
C1521      C1522   1.371       .  A
C1521      H1533   1.082       .  S
C1522      H1534   1.082       .  S
C1523      C1558   1.489       .  S
C1524      C1541   1.482       .  S
C1525      C1551   1.476       .  S
C1526      C1571   1.496       .  S
C1537      C1538   1.402       .  A
C1537      C1542   1.394       .  A
C1537      H1544   1.084       .  S
C1539      C1540   1.397       .  A
C1539      F1546   1.358       .  S
C1540      H1545   1.083       .  S
C1541      C1542   1.404       .  A
C1542      F1543   1.357       .  S
C1547      C1552   1.399       .  A
C1547      H1554   1.083       .  S
C1548      C1549   1.402       .  A
C1549      C1550   1.391       .  A
C1549      F1556   1.355       .  S
C1550      C1551   1.400       .  A
C1550      H1555   1.084       .  S
C1552      F1553   1.357       .  S
C1557      C1558   1.404       .  A
C1557      C1562   1.400       .  A
C1557      H1564   1.083       .  S
C1559      C1560   1.395       .  A
C1559      F1566   1.357       .  S
C1560      H1565   1.083       .  S
C1561      C1562   1.407       .  A
C1562      F1563   1.358       .  S
C1567      C1568   1.407       .  A
C1567      C1572   1.404       .  A
C1567      H1574   1.082       .  S
C1569      C1570   1.398       .  A
C1569      F1576   1.356       .  S
C1570      H1575   1.083       .  S
C1571      C1572   1.410       .  A
C1572      F1573   1.358       .  S
C1577      C1578   1.406   1_565  A
C1577      C1582   1.403       .  A
C1577      H1584   1.083       .  S
C1578      C2131   1.409       .  A
C1579      C2130   1.407       .  A
C1579      C1580   1.398       .  A
C1579      F1586   1.357       .  S
C1580      C1581   1.404       .  A
C1580      H1585   1.082       .  S
C1581      C2134   1.409       .  A
C1582      C2133   1.408   1_565  A
C1582      F1583   1.356       .  S
C1587      C2140   1.404       .  A
C1587      C1592   1.396       .  A
C1587      H1594   1.083       .  S
C1588      C2139   1.404   1_545  A
C1588      C1589   1.405       .  A
C1589      C1590   1.396       .  A
C1589      F1596   1.358       .  S
C1590      C2143   1.403       .  A
C1590      H1595   1.083       .  S
C1591      C2142   1.402       .  A
C1591      C1592   1.406       .  A
C1592      F1593   1.358       .  S
C1597      C2150   1.405       .  A
C1597      C1602   1.401       .  A
C1597      H1604   1.084       .  S
C1598      C2149   1.404   1_545  A
C1598      C1599   1.406       .  A
C1599      C1600   1.396       .  A
C1599      F1606   1.358       .  S
C1600      C1601   1.403       .  A
C1600      H1605   1.083       .  S
C1601      C2154   1.406   1_545  A
C1602      C2153   1.411       .  A
C1602      F1603   1.358       .  S
C1607      C1608   1.406       .  A
C1607      C1612   1.397       .  A
C1607      H1614   1.083       .  S
C1608      C2161   1.407   1_545  A
C1609      C2160   1.406       .  A
C1609      C1610   1.397       .  A
C1609      F1616   1.357       .  S
C1610      C2163   1.402       .  A
C1610      H1615   1.083       .  S
C1611      C2162   1.403   1_545  A
C1611      C1612   1.407       .  A
C1612      F1613   1.358       .  S
C1617      C1622   1.397       .  A
C1617      H1624   1.084       .  S
C1618      C1619   1.406       .  A
C1619      C1620   1.397       .  A
C1619      F1626   1.358       .  S
C1620      C1621   1.404       .  A
C1620      H1625   1.083       .  S
C1622      F1623   1.358       .  S
C1627      C1628   1.404       .  A
C1627      C1632   1.399       .  A
C1627      H1634   1.083       .  S
C1629      C1630   1.400       .  A
C1629      F1636   1.358       .  S
C1630      H1635   1.083       .  S
C1631      C1632   1.407       .  A
C1632      F1633   1.357       .  S
C1637      C1638   1.403       .  A
C1637      C1642   1.397       .  A
C1637      H1644   1.083       .  S
C1639      C1640   1.398       .  A
C1639      F1646   1.358       .  S
C1640      H1645   1.083       .  S
C1641      C1642   1.409       .  A
C1642      F1643   1.357       .  S
C1647      C1652   1.399       .  A
C1647      H1654   1.083       .  S
C1648      C1649   1.408       .  A
C1649      C1650   1.400       .  A
C1649      F1656   1.355       .  S
C1650      C1651   1.403       .  A
C1650      H1655   1.083       .  S
C1652      F1653   1.358       .  S
N1657      C1662   1.351       .  A
N1657      C1661   1.353       .  A
N1657      H1689   1.042       .  S
N1658      C1665   1.353       .  A
N1658      C1666   1.352       .  A
N1659      C1664   1.354       .  A
N1659      C1663   1.353       .  A
N1659      H1690   1.042       .  S
N1660      C1667   1.349       .  A
N1660      C1668   1.349       .  A
C1661      C1669   1.388       .  A
C1661      C1677   1.416       .  A
C1662      C1678   1.413       .  A
C1662      C1670   1.387       .  A
C1663      C1671   1.388       .  A
C1663      C1680   1.418       .  A
C1664      C1679   1.414       .  A
C1664      C1672   1.385       .  A
C1665      C1677   1.417       .  A
C1665      C1673   1.386       .  A
C1666      C1680   1.416       .  A
C1666      C1674   1.386       .  A
C1667      C1675   1.387       .  A
C1667      C1678   1.410       .  A
C1668      C1676   1.385       .  A
C1668      C1679   1.408       .  A
C1669      C1670   1.377       .  A
C1669      H1681   1.082       .  S
C1670      H1682   1.082       .  S
C1671      C1672   1.377       .  A
C1671      H1683   1.082       .  S
C1672      H1684   1.082       .  S
C1673      C1674   1.378       .  A
C1673      H1685   1.082       .  S
C1674      H1686   1.082       .  S
C1675      C1676   1.374       .  A
C1675      H1687   1.082       .  S
C1676      H1688   1.082       .  S
C1677      C1904   1.500       .  S
C1678      C1897   1.486       .  S
C1679      C1927   1.491       .  S
C1680      C1917   1.495       .  S
O1691      C1702   1.294       .  A
O1691     Zr2003   2.446       .  S
O1692      C1703   1.295       .  A
O1692     Zr2002   2.454       .  S
O1693      C1704   1.291       .  A
O1694      C1705   1.294       .  A
O1695     Zr2005   2.448   1_554  S
O1696     Zr2004   2.437       .  S
O1697      C1703   1.291       .  A
O1697     Zr1699   2.435       .  S
O1698      C1702   1.292       .  A
Zr1699     O1700   2.341       .  S
O1700     Zr2002   2.334       .  S
O1700     Zr2005   2.346   1_554  S
C1702      C1924   1.477       .  S
C1703      C1914   1.483       .  S
C1704      C1887   1.472       .  S
C1705      C1874   1.480       .  S
H1706      O1707   0.966       .  S
O1707     Zr2004   2.354   1_565  S
H1708      O1709   0.966       .  S
O1709     Zr2003   2.346       .  S
O1710      C1733   1.295       .  A
O1710     Zr1726   2.451       .  S
O1711      C1734   1.292       .  A
O1711     Zr1727   2.432       .  S
O1712      C1735   1.290       .  A
O1712     Zr1728   2.428       .  S
O1713      C1736   1.293       .  A
O1713     Zr1729   2.444   1_565  S
O1714      C1737   1.292       .  A
O1715      C1738   1.292       .  A
O1716      C1739   1.293       .  A
O1717      C1740   1.291       .  A
O1717     Zr1730   2.434       .  S
O1718      C1739   1.294       .  A
O1718     Zr1728   2.447       .  S
O1719      C1740   1.291   1_545  A
O1719     Zr1729   2.430       .  S
O1720      C1735   1.292       .  A
O1721      C1738   1.294       .  A
O1722      C1737   1.293       .  A
O1722     Zr1727   2.442       .  S
O1723      C1736   1.291       .  A
O1723     Zr1726   2.431       .  S
O1724      C1733   1.294       .  A
O1724     Zr1730   2.447       .  S
O1725      C1734   1.291       .  A
Zr1726     O1968   2.455       .  S
Zr1726     O1976   2.338       .  S
Zr1726     O1744   2.340       .  S
Zr1727     O1967   2.450       .  S
Zr1727     O1985   2.340       .  S
Zr1727     O1731   2.346       .  S
Zr1728     O1972   2.429   1_565  S
Zr1728     O1983   2.348       .  S
Zr1728     O1732   2.333       .  S
Zr1729     O1971   2.432       .  S
Zr1729     O1976   2.343   1_545  S
Zr1729     O1744   2.338   1_545  S
Zr1730     O1744   2.340       .  S
C1733      C1907   1.488       .  S
C1734      C1894   1.469       .  S
C1735      C1814   1.467       .  S
C1736      C1837   1.475       .  S
C1737      C1844   1.476       .  S
C1738      C1824   1.478       .  S
C1739      C1857   1.488       .  S
C1740      C1867   1.466   1_565  S
H1741      O1742   0.966       .  S
H1743      O1744   0.966       .  S
N1745      C1750   1.353       .  A
N1745      C1749   1.351       .  A
N1745      H1777   1.041       .  S
N1746      C1753   1.349       .  A
N1746      C1754   1.351       .  A
N1747      C1752   1.352       .  A
N1747      C1751   1.354       .  A
N1747      H1778   1.042       .  S
N1748      C1755   1.351       .  A
N1748      C1756   1.349       .  A
C1749      C1757   1.388       .  A
C1749      C1765   1.415       .  A
C1750      C1766   1.414       .  A
C1750      C1758   1.386       .  A
C1751      C1759   1.385       .  A
C1751      C1768   1.413       .  A
C1752      C1767   1.414       .  A
C1752      C1760   1.388       .  A
C1753      C1765   1.412       .  A
C1753      C1761   1.387       .  A
C1754      C1768   1.411       .  A
C1754      C1762   1.385       .  A
C1755      C1763   1.386       .  A
C1755      C1766   1.412       .  A
C1756      C1764   1.387       .  A
C1756      C1767   1.411       .  A
C1757      C1758   1.377       .  A
C1757      H1769   1.082       .  S
C1758      H1770   1.082       .  S
C1759      C1760   1.376       .  A
C1759      H1771   1.082       .  S
C1760      H1772   1.082       .  S
C1761      C1762   1.373       .  A
C1761      H1773   1.082       .  S
C1762      H1774   1.082       .  S
C1763      C1764   1.376       .  A
C1763      H1775   1.082       .  S
C1764      H1776   1.082       .  S
C1765      C1864   1.486       .  S
C1766      C1854   1.490       .  S
C1767      C1884   1.485       .  S
C1768      C1877   1.494       .  S
N1779      C1784   1.351       .  A
N1779      C1783   1.353       .  A
N1779      H1811   1.041       .  S
N1780      C1787   1.350       .  A
N1780      C1788   1.349       .  A
N1781      C1786   1.352       .  A
N1781      C1785   1.351       .  A
N1781      H1812   1.041       .  S
N1782      C1789   1.350       .  A
N1782      C1790   1.351       .  A
C1783      C1791   1.388       .  A
C1783      C1799   1.416       .  A
C1784      C1800   1.411       .  A
C1784      C1792   1.386       .  A
C1785      C1793   1.387       .  A
C1785      C1802   1.412       .  A
C1786      C1801   1.413       .  A
C1786      C1794   1.387       .  A
C1787      C1799   1.412       .  A
C1787      C1795   1.386       .  A
C1788      C1802   1.411       .  A
C1788      C1796   1.386       .  A
C1789      C1797   1.386       .  A
C1789      C1800   1.410       .  A
C1790      C1798   1.386       .  A
C1790      C1801   1.412       .  A
C1791      C1792   1.376       .  A
C1791      H1803   1.082       .  S
C1792      H1804   1.082       .  S
C1793      C1794   1.379       .  A
C1793      H1805   1.082       .  S
C1794      H1806   1.082       .  S
C1795      C1796   1.375       .  A
C1795      H1807   1.082       .  S
C1796      H1808   1.082       .  S
C1797      C1798   1.372       .  A
C1797      H1809   1.082       .  S
C1798      H1810   1.082       .  S
C1799      C1834   1.492       .  S
C1800      C1817   1.483       .  S
C1801      C1827   1.490       .  S
C1802      C1847   1.483       .  S
C1813      C1814   1.404       .  A
C1813      C1818   1.399       .  A
C1813      H1820   1.084       .  S
C1814      C2091   1.402       .  A
C1815      C2090   1.405   1_554  A
C1815      C1816   1.396       .  A
C1815      F1822   1.358       .  S
C1816      C2093   1.404   1_554  A
C1816      H1821   1.083       .  S
C1817      C2092   1.403       .  A
C1817      C1818   1.406       .  A
C1818      F1819   1.358       .  S
C1823      C2100   1.405       .  A
C1823      C1828   1.401       .  A
C1823      H1830   1.083       .  S
C1824      C2099   1.405       .  A
C1824      C1825   1.407       .  A
C1825      C1826   1.398       .  A
C1825      F1832   1.357       .  S
C1826      C1827   1.404       .  A
C1826      H1831   1.083       .  S
C1827      C2104   1.407       .  A
C1828      C2103   1.406       .  A
C1828      F1829   1.357       .  S
C1833      C1834   1.406       .  A
C1833      C1838   1.398       .  A
C1833      H1840   1.083       .  S
C1834      C2111   1.408       .  A
C1835      C2110   1.408   1_554  A
C1835      C1836   1.399       .  A
C1835      F1842   1.358       .  S
C1836      C2113   1.404   1_554  A
C1836      H1841   1.084       .  S
C1837      C2112   1.404       .  A
C1837      C1838   1.407       .  A
C1838      F1839   1.358       .  S
C1843      C1844   1.405       .  A
C1843      C1848   1.401       .  A
C1843      H1850   1.083       .  S
C1844      C2121   1.405       .  A
C1845      C2120   1.407   1_554  A
C1845      C1846   1.394       .  A
C1845      F1852   1.356       .  S
C1846      C2123   1.403   1_554  A
C1846      H1851   1.083       .  S
C1847      C2122   1.400       .  A
C1847      C1848   1.406       .  A
C1848      F1849   1.357       .  S
C1853      C1854   1.404       .  A
C1853      C1858   1.400       .  A
C1853      H1860   1.083       .  S
C1855      C1856   1.400       .  A
C1855      F1862   1.357       .  S
C1856      C1857   1.406   1_545  A
C1856      H1861   1.082       .  S
C1858      F1859   1.357       .  S
C1863      C1868   1.397       .  A
C1863      H1870   1.083       .  S
C1864      C1865   1.404       .  A
C1865      C1866   1.391       .  A
C1865      F1872   1.357       .  S
C1866      H1871   1.084       .  S
C1867      C1868   1.406   1_545  A
C1868      F1869   1.358       .  S
C1873      C1878   1.399       .  A
C1873      H1880   1.084       .  S
C1874      C1875   1.407       .  A
C1875      C1876   1.400       .  A
C1875      F1882   1.358       .  S
C1876      C1877   1.405       .  A
C1876      H1881   1.083       .  S
C1878      F1879   1.358       .  S
C1883      C1884   1.404       .  A
C1883      C1888   1.397       .  A
C1883      H1890   1.083       .  S
C1885      C1886   1.398       .  A
C1885      F1892   1.358       .  S
C1886      H1891   1.083       .  S
C1887      C1888   1.406       .  A
C1888      F1889   1.358       .  S
C1893      C1898   1.395       .  A
C1893      H1900   1.084       .  S
C1894      C1895   1.405       .  A
C1895      C1896   1.394       .  A
C1895      F1902   1.358       .  S
C1896      C1897   1.404       .  A
C1896      H1901   1.083       .  S
C1898      F1899   1.358       .  S
C1903      C1904   1.407       .  A
C1903      C1908   1.403       .  A
C1903      H1910   1.083       .  S
C1905      C1906   1.400       .  A
C1905      F1912   1.357       .  S
C1906      H1911   1.083       .  S
C1907      C1908   1.410       .  A
C1908      F1909   1.358       .  S
C1913      C1914   1.405       .  A
C1913      C1918   1.401       .  A
C1913      H1920   1.083       .  S
C1915      C1916   1.399       .  A
C1915      F1922   1.357       .  S
C1916      H1921   1.083       .  S
C1917      C1918   1.409       .  A
C1918      F1919   1.358       .  S
C1923      C1928   1.401       .  A
C1923      H1930   1.084       .  S
C1924      C1925   1.405       .  A
C1925      C1926   1.397       .  A
C1925      F1932   1.355       .  S
C1926      C1927   1.403       .  A
C1926      H1931   1.083       .  S
C1928      F1929   1.358       .  S
N1933      C1938   1.351       .  A
N1933      C1937   1.352       .  A
N1933      H1965   1.039       .  S
N1934      C1941   1.351       .  A
N1934      C1942   1.351       .  A
N1935      C1940   1.356       .  A
N1935      C1939   1.354       .  A
N1935      H1966   1.042       .  S
N1936      C1943   1.351       .  A
N1936      C1944   1.353       .  A
C1937      C1945   1.388       .  A
C1937      C1953   1.414       .  A
C1938      C1954   1.414       .  A
C1938      C1946   1.388       .  A
C1939      C1947   1.386       .  A
C1939      C1956   1.418       .  A
C1940      C1955   1.422       .  A
C1940      C1948   1.388       .  A
C1941      C1953   1.411       .  A
C1941      C1949   1.385       .  A
C1942      C1956   1.413       .  A
C1942      C1950   1.387       .  A
C1943      C1951   1.385       .  A
C1943      C1954   1.413       .  A
C1944      C1952   1.386       .  A
C1944      C1955   1.415       .  A
C1945      C1946   1.378       .  A
C1945      H1957   1.083       .  S
C1946      H1958   1.082       .  S
C1947      C1948   1.379       .  A
C1947      H1959   1.082       .  S
C1948      H1960   1.082       .  S
C1949      C1950   1.372       .  A
C1949      H1961   1.082       .  S
C1950      H1962   1.082       .  S
C1951      C1952   1.373       .  A
C1951      H1963   1.082       .  S
C1952      H1964   1.082       .  S
C1953      C2180   1.484       .  S
C1954      C2173   1.486       .  S
C1955      C2203   1.507       .  S
C1956      C2193   1.495       .  S
O1967      C1978   1.294       .  A
O1968      C1979   1.295       .  A
O1969      C1980   1.292       .  A
O1970      C1981   1.293       .  A
O1973      C1979   1.290       .  A
O1973     Zr1975   2.425   1_565  S
O1974      C1978   1.295       .  A
Zr1975     O1976   2.341   1_545  S
C1978      C2200   1.490       .  S
C1979      C2190   1.479       .  S
C1980      C2163   1.472       .  S
C1981      C2150   1.479       .  S
H1982      O1983   0.965       .  S
H1984      O1985   0.966       .  S
O1986      C2009   1.291       .  A
O1986     Zr2002   2.431   1_556  S
O1987      C2010   1.293       .  A
O1987     Zr2003   2.439   1_556  S
O1988      C2011   1.294       .  A
O1988     Zr2004   2.446   1_566  S
O1989      C2012   1.293       .  A
O1989     Zr2005   2.440       .  S
O1990      C2013   1.292       .  A
O1991      C2014   1.292   1_556  A
O1992      C2015   1.294       .  A
O1993      C2016   1.289       .  A
O1993     Zr2006   2.422   1_545  S
O1994      C2015   1.295       .  A
O1994     Zr2004   2.458   1_556  S
O1995      C2016   1.292       .  A
O1995     Zr2005   2.437   1_545  S
O1996      C2011   1.291   1_554  A
O1997      C2014   1.295       .  A
O1998      C2013   1.291       .  A
O1998     Zr2003   2.431   1_556  S
O1999      C2012   1.293       .  A
O1999     Zr2002   2.441   1_556  S
O2000      C2009   1.291       .  A
O2000     Zr2006   2.433       .  S
O2001      C2010   1.292       .  A
Zr2002     O2020   2.345   1_554  S
Zr2003     O2007   2.339   1_554  S
Zr2004     O2008   2.331   1_544  S
Zr2005     O2020   2.346       .  S
Zr2006     O2020   2.347       .  S
C2009      C2183   1.467       .  S
C2010      C2170   1.472       .  S
C2011      C2090   1.472       .  S
C2012      C2113   1.476       .  S
C2013      C2120   1.477       .  S
C2014      C2100   1.480       .  S
C2015      C2133   1.491       .  S
C2016      C2143   1.467       .  S
H2017      O2018   0.966       .  S
H2019      O2020   0.964       .  S
N2021      C2026   1.355       .  A
N2021      C2025   1.351       .  A
N2021      H2053   1.040       .  S
N2022      C2029   1.351       .  A
N2022      C2030   1.352       .  A
N2023      C2028   1.354       .  A
N2023      C2027   1.356       .  A
N2023      H2054   1.041       .  S
N2024      C2031   1.353       .  A
N2024      C2032   1.351       .  A
C2025      C2033   1.387       .  A
C2025      C2041   1.414       .  A
C2026      C2042   1.419       .  A
C2026      C2034   1.388       .  A
C2027      C2035   1.387       .  A
C2027      C2044   1.419       .  A
C2028      C2043   1.416       .  A
C2028      C2036   1.386       .  A
C2029      C2041   1.413       .  A
C2029      C2037   1.387       .  A
C2030      C2044   1.413       .  A
C2030      C2038   1.386       .  A
C2031      C2039   1.386       .  A
C2031      C2042   1.416       .  A
C2032      C2040   1.386       .  A
C2032      C2043   1.413       .  A
C2033      C2034   1.376       .  A
C2033      H2045   1.083       .  S
C2034      H2046   1.082       .  S
C2035      C2036   1.375       .  A
C2035      H2047   1.082       .  S
C2036      H2048   1.082       .  S
C2037      C2038   1.373       .  A
C2037      H2049   1.082       .  S
C2038      H2050   1.082       .  S
C2039      C2040   1.373       .  A
C2039      H2051   1.082       .  S
C2040      H2052   1.082       .  S
C2041      C2140   1.484       .  S
C2042      C2130   1.499       .  S
C2043      C2160   1.489       .  S
C2044      C2153   1.500       .  S
N2055      C2060   1.351       .  A
N2055      C2059   1.354       .  A
N2055      H2087   1.042       .  S
N2056      C2063   1.347       .  A
N2056      C2064   1.348       .  A
N2057      C2062   1.351   1_556  A
N2057      C2061   1.351   1_556  A
N2057      H2088   1.042       .  S
N2058      C2065   1.350       .  A
N2058      C2066   1.351       .  A
C2059      C2067   1.386   1_556  A
C2059      C2075   1.415       .  A
C2060      C2076   1.414       .  A
C2060      C2068   1.387   1_556  A
C2061      C2069   1.387       .  A
C2061      C2078   1.412   1_554  A
C2062      C2077   1.411   1_554  A
C2062      C2070   1.386       .  A
C2063      C2075   1.406       .  A
C2063      C2071   1.385       .  A
C2064      C2078   1.409       .  A
C2064      C2072   1.387       .  A
C2065      C2073   1.387       .  A
C2065      C2076   1.413       .  A
C2066      C2074   1.386       .  A
C2066      C2077   1.412       .  A
C2067      C2068   1.377       .  A
C2067      H2079   1.082       .  S
C2068      H2080   1.082       .  S
C2069      C2070   1.379       .  A
C2069      H2081   1.082       .  S
C2070      H2082   1.082       .  S
C2071      C2072   1.375       .  A
C2071      H2083   1.082       .  S
C2072      H2084   1.082       .  S
C2073      C2074   1.375       .  A
C2073      H2085   1.082       .  S
C2074      H2086   1.082       .  S
C2075      C2110   1.488       .  S
C2076      C2093   1.487       .  S
C2077      C2103   1.489   1_556  S
C2078      C2123   1.486       .  S
C2089      C2090   1.404       .  A
C2089      C2094   1.399       .  A
C2089      H2096   1.084       .  S
C2091      C2092   1.394       .  A
C2091      F2098   1.357       .  S
C2092      H2097   1.083       .  S
C2093      C2094   1.407       .  A
C2094      F2095   1.358       .  S
C2099      C2104   1.401       .  A
C2099      H2106   1.083       .  S
C2100      C2101   1.408   1_554  A
C2101      C2102   1.400       .  A
C2101      F2108   1.356       .  S
C2102      C2103   1.404   1_556  A
C2102      H2107   1.084       .  S
C2104      F2105   1.357       .  S
C2109      C2110   1.403       .  A
C2109      C2114   1.398       .  A
C2109      H2116   1.083       .  S
C2111      C2112   1.397       .  A
C2111      F2118   1.357       .  S
C2112      H2117   1.084       .  S
C2113      C2114   1.407       .  A
C2114      F2115   1.357       .  S
C2119      C2120   1.405       .  A
C2119      C2124   1.397       .  A
C2119      H2126   1.083       .  S
C2121      C2122   1.395       .  A
C2121      F2128   1.353       .  S
C2122      H2127   1.083       .  S
C2123      C2124   1.406       .  A
C2124      F2125   1.358       .  S
C2129      C2130   1.407       .  A
C2129      C2134   1.402       .  A
C2129      H2136   1.083       .  S
C2131      C2132   1.404       .  A
C2131      F2138   1.358       .  S
C2132      C2133   1.406       .  A
C2132      H2137   1.080       .  S
C2134      F2135   1.357       .  S
C2139      C2144   1.394       .  A
C2139      H2146   1.083       .  S
C2140      C2141   1.406       .  A
C2141      C2142   1.396       .  A
C2141      F2148   1.357       .  S
C2142      H2147   1.084       .  S
C2143      C2144   1.404   1_545  A
C2144      F2145   1.358       .  S
C2149      C2154   1.396       .  A
C2149      H2156   1.084       .  S
C2150      C2151   1.405       .  A
C2151      C2152   1.398       .  A
C2151      F2158   1.357       .  S
C2152      C2153   1.406       .  A
C2152      H2157   1.083       .  S
C2154      F2155   1.358       .  S
C2159      C2160   1.405       .  A
C2159      C2164   1.401       .  A
C2159      H2166   1.083       .  S
C2161      C2162   1.396       .  A
C2161      F2168   1.357       .  S
C2162      H2167   1.083       .  S
C2163      C2164   1.407       .  A
C2164      F2165   1.358       .  S
C2169      C2174   1.396       .  A
C2169      H2176   1.084       .  S
C2170      C2171   1.406       .  A
C2171      C2172   1.398       .  A
C2171      F2178   1.358       .  S
C2172      C2173   1.404       .  A
C2172      H2177   1.083       .  S
C2174      F2175   1.357       .  S
C2179      C2180   1.402       .  A
C2179      C2184   1.394       .  A
C2179      H2186   1.083       .  S
C2181      C2182   1.398       .  A
C2181      F2188   1.358       .  S
C2182      H2187   1.082       .  S
C2183      C2184   1.404       .  A
C2184      F2185   1.358       .  S
C2189      C2190   1.404       .  A
C2189      C2194   1.399       .  A
C2189      H2196   1.083       .  S
C2191      C2192   1.397       .  A
C2191      F2198   1.358       .  S
C2192      H2197   1.083       .  S
C2193      C2194   1.408       .  A
C2194      F2195   1.357       .  S
C2199      C2204   1.402       .  A
C2199      H2206   1.083       .  S
C2200      C2201   1.408       .  A
C2201      C2202   1.400       .  A
C2201      F2208   1.353       .  S
C2202      C2203   1.406       .  A
C2202      H2207   1.083       .  S
C2204      F2205   1.357       .  S
