geometry optimzed in LAMMPS
_audit_creation_date              2020-11-30 
_audit_creation_method            'lammps2cif' 
_symmetry_space_group_name_H-M    'P1' 
_symmetry_Int_Tables_number       1 
_symmetry_cell_setting            triclinic 
loop_ 
_symmetry_equiv_pos_as_xyz 
  x,y,z 
_cell_length_a                    36.60368772 
_cell_length_b                    36.49825556294207 
_cell_length_c                    35.48706242796242 
_cell_angle_alpha                 91.15738742458512 
_cell_angle_beta                  87.7375781838719 
_cell_angle_gamma                 89.98323231844432 
loop_ 
_atom_site_label 
_atom_site_type_symbol 
_atom_site_fract_x 
_atom_site_fract_y 
_atom_site_fract_z 
_atom_site_charge 
N1          N  0.05570947  0.00093773  0.00078371    -0.36300
N2          N  0.50044965  0.05828886  0.00589641    -0.56900
N3          N  0.44416445  0.00262582  0.00926418    -0.36300
N4          N  0.49902895  0.44542722  0.00769487    -0.56900
C5          C  0.07672857  0.03076785  0.00692396     0.27300
C6          C  0.07594146  0.47112314  0.00824812     0.27300
C7          C  0.42407560  0.03290901  0.01789103     0.27300
C8          C  0.42326699  0.47332602  0.01822149     0.27300
C9          C  0.03008947  0.07868691  0.99653978     0.35900
C10         C  0.47093354  0.07952777  0.00057393     0.35900
C11         C  0.02818391  0.42365786  0.99936215     0.35900
C12         C  0.46906747  0.42462462  0.00249142     0.35900
C13         C  0.11087659  0.01978514  0.01804439    -0.21600
C14         C  0.11037313  0.48210441  0.01889361    -0.21600
C15         C  0.39005400  0.02275516  0.03282035    -0.21600
C16         C  0.38949778  0.48506333  0.03288944    -0.21600
C17         C  0.01943625  0.11321390  0.98566149    -0.22700
C18         C  0.48188825  0.11368703  0.98801317    -0.22700
C19         C  0.01675070  0.38871997  0.98936899    -0.22700
C20         C  0.47921797  0.38934193  0.99131466    -0.22700
C21         C  0.06660878  0.06742501  0.00043906    -0.18000
C22         C  0.06492077  0.43427718  0.00325424    -0.18000
C23         C  0.43277056  0.43647588  0.01007512    -0.18000
C24         C  0.43439108  0.06913102  0.00912416    -0.18000
H25         H  0.13390888  0.03709467  0.02447038     0.14900
H26         H  0.13292899  0.46475070  0.02612334     0.14900
H27         H  0.36761550  0.04063130  0.04176264     0.14900
H28         H  0.36657147  0.46822118  0.04190284     0.14900
H29         H  0.03690921  0.13575044  0.97716555     0.13200
H30         H  0.46467135  0.13669828  0.98169715     0.13200
H31         H  0.03368943  0.36518674  0.98180205     0.13200
H32         H  0.46146057  0.36635135  0.98560869     0.13200
H33         H  0.03066551  0.00076731  0.98800166     0.26400
H34         H  0.46846777  0.00186926  0.99315633     0.26400
N35         N  0.44471022  0.49911095  0.24655485    -0.36300
N36         N  0.00011319  0.44272770  0.24736752    -0.56900
N37         N  0.05591055  0.49900148  0.25147520    -0.36300
N38         N  0.00049213  0.05534512  0.24794095    -0.56900
C39         C  0.42496026  0.46922187  0.23716886     0.27300
C40         C  0.42507588  0.02884711  0.23767206     0.27300
C41         C  0.07648855  0.46890121  0.24329393     0.27300
C42         C  0.07681830  0.02852939  0.24318822     0.27300
C43         C  0.47004526  0.42187977  0.25319192     0.35900
C44         C  0.02890827  0.42194391  0.25622501     0.35900
C45         C  0.47059134  0.07679594  0.25319805     0.35900
C46         C  0.02963542  0.07671079  0.25503840     0.35900
C47         C  0.39231775  0.48005513  0.22226678    -0.21600
C48         C  0.39241147  0.01775844  0.22252801    -0.21600
C49         C  0.11089959  0.47941702  0.22976631    -0.21600
C50         C  0.11115364  0.01710137  0.22985424    -0.21600
C51         C  0.47972376  0.38757083  0.26553565    -0.22700
C52         C  0.01709431  0.38770220  0.26775467    -0.22700
C53         C  0.48077095  0.11205761  0.26356349    -0.22700
C54         C  0.01827321  0.11202408  0.26463264    -0.22700
C55         C  0.43434097  0.43270241  0.24490320    -0.18000
C56         C  0.43461594  0.06559645  0.24573476    -0.18000
C57         C  0.06637481  0.06545143  0.24955082    -0.18000
C58         C  0.06577586  0.43237966  0.25029488    -0.18000
H59         H  0.37041522  0.46263297  0.21285987     0.14900
H60         H  0.37059899  0.03505140  0.21330789     0.14900
H61         H  0.13362035  0.46178013  0.22113485     0.14900
H62         H  0.13409131  0.03414243  0.22131251     0.14900
H63         H  0.46179803  0.36473661  0.27184423     0.13200
H64         H  0.03373514  0.36490564  0.27594731     0.13200
H65         H  0.46309961  0.13551081  0.26899754     0.13200
H66         H  0.03525907  0.13543957  0.27100056     0.13200
H67         H  0.46780937  0.49929160  0.26266016     0.26400
H68         H  0.03072865  0.49941300  0.26608786     0.26400
Zn69       Zn  0.29310324  0.25264308  0.02981468     1.49700
Zn70       Zn  0.20581987  0.25229188  0.03174851     1.49400
Zn71       Zn  0.25121362  0.29524410  0.46731640     1.49100
Zn72       Zn  0.25079530  0.20721466  0.46704142     1.49500
O73         O  0.25013563  0.25181571  0.99886638    -1.83800
O74         O  0.27885763  0.25174218  0.08472284    -0.74500
O75         O  0.17438835  0.29623542  0.02193927    -0.74300
O76         O  0.29478149  0.32766038  0.47763230    -0.73800
O77         O  0.21809528  0.25261645  0.08684344    -0.74500
O78         O  0.32355206  0.29786445  0.02158385    -0.74100
O79         O  0.20582815  0.32560444  0.47723984    -0.74700
O80         O  0.25178749  0.21976464  0.41170131    -0.74100
O81         O  0.17530664  0.20738000  0.02257486    -0.74800
O82         O  0.25261170  0.28076016  0.41211819    -0.74200
O83         O  0.20602779  0.17610489  0.47758220    -0.74700
O84         O  0.29467155  0.17581851  0.47733236    -0.74600
O85         O  0.32439610  0.20823481  0.01962381    -0.74400
C86         C  0.24842246  0.25179761  0.10322216     0.77400
C87         C  0.17772780  0.32273956  0.99922878     0.77900
C88         C  0.32097150  0.32515718  0.00007151     0.76900
C89         C  0.25224828  0.25005293  0.39442296     0.77200
C90         C  0.17865882  0.17948876  0.00064767     0.78400
C91         C  0.32145287  0.17960787  0.99888601     0.77400
Zn92       Zn  0.25035827  0.20551296  0.27967001     1.49700
Zn93       Zn  0.20620605  0.24915128  0.21911028     1.49400
Zn94       Zn  0.25117952  0.29328491  0.28101625     1.49100
Zn95       Zn  0.29361560  0.24871947  0.21445750     1.49500
O96         O  0.25035805  0.24918633  0.24860929    -1.83800
O97         O  0.20590121  0.17435886  0.27096699    -0.74500
O98         O  0.17567979  0.29357268  0.23188803    -0.74300
O99         O  0.25215684  0.28005855  0.33592745    -0.73800
O100        O  0.17526108  0.20425515  0.22849497    -0.74500
O101        O  0.25093051  0.21910052  0.33514206    -0.74100
O102        O  0.20685787  0.32490815  0.27385799    -0.74700
O103        O  0.32510644  0.29313825  0.22289226    -0.74100
O104        O  0.21841765  0.25070490  0.16343656    -0.74800
O105        O  0.29552821  0.32424918  0.26889694    -0.74200
O106        O  0.27919492  0.24947052  0.16034370    -0.74700
O107        O  0.32459544  0.20389994  0.22182479    -0.74600
O108        O  0.29460479  0.17416297  0.26715899    -0.74400
C109        C  0.17857258  0.17712263  0.25011787     0.77400
C110        C  0.17921488  0.32154334  0.25345258     0.77900
C111        C  0.25186876  0.24968828  0.35301121     0.76900
C112        C  0.32231346  0.32090538  0.24505717     0.77200
C113        C  0.24862955  0.25063973  0.14447370     0.78400
C114        C  0.32163551  0.17672543  0.24363662     0.77400
C115        C  0.12094628  0.40627913  0.27864002    -0.08900
C116        C  0.09466541  0.40384168  0.25104053     0.07300
C117        C  0.09672108  0.37494421  0.22424174    -0.02600
C118        C  0.12410453  0.34854028  0.22607033    -0.07100
C119        C  0.15061632  0.35056963  0.25376916     0.06400
C120        C  0.14904043  0.38040632  0.28003060    -0.02100
Br121      Br  0.18386014  0.38853234  0.31841166    -0.01800
H122        H  0.11972447  0.42876195  0.29907469     0.10400
H123        H  0.12488768  0.32658944  0.20505853     0.08400
Br124      Br  0.06376431  0.37101064  0.18360220    -0.02200
C125        C  0.35691193  0.37045202  0.27682417    -0.08900
C126        C  0.35089263  0.34971704  0.24379333     0.07300
C127        C  0.37226147  0.35720752  0.21067618    -0.02600
C128        C  0.39926896  0.38433942  0.21152300    -0.07100
C129        C  0.40525267  0.40450678  0.24469486     0.06400
C130        C  0.38379123  0.39758459  0.27744493    -0.02100
Br131      Br  0.39078960  0.42425549  0.32374921    -0.01800
H132        H  0.34096307  0.36525815  0.30252635     0.10400
H133        H  0.41554320  0.38996692  0.18613149     0.08400
Br134      Br  0.36490942  0.33318450  0.16287683    -0.02200
C135        C  0.40396538  0.11680844  0.21414755    -0.08900
C136        C  0.40551632  0.09381726  0.24514211     0.07300
C137        C  0.37883811  0.09708500  0.27458238    -0.02600
C138        C  0.35187433  0.12407188  0.27335380    -0.07100
C139        C  0.35036359  0.14782592  0.24263653     0.06400
C140        C  0.37648219  0.14330158  0.21229578    -0.02100
Br141      Br  0.37537396  0.17019891  0.16634975    -0.01800
H142        H  0.42392553  0.11361328  0.19093662     0.10400
H143        H  0.33210028  0.12650806  0.29679276     0.08400
Br144      Br  0.37822404  0.06526979  0.31703687    -0.02200
C145        C  0.11372185  0.10135023  0.28242342    -0.08900
C146        C  0.09537763  0.09380467  0.24927839     0.07300
C147        C  0.10474855  0.11313100  0.21643824    -0.02600
C148        C  0.13171901  0.14025167  0.21733947    -0.07100
C149        C  0.15019709  0.14813725  0.25058427     0.06400
C150        C  0.14099420  0.12816226  0.28339479    -0.02100
Br151      Br  0.16289292  0.13725163  0.33102655    -0.01800
H152        H  0.10651705  0.08646948  0.30776358     0.10400
H153        H  0.13862871  0.15486480  0.19176061     0.08400
Br154      Br  0.08194822  0.10255377  0.16967186    -0.02200
C155        C  0.12524488  0.35559677  0.03134117    -0.08900
C156        C  0.14850920  0.35099167  0.99905524     0.07300
C157        C  0.14320431  0.37366087  0.46773066    -0.02600
C158        C  0.11602258  0.40065843  0.46977719    -0.07100
C159        C  0.09341265  0.40532049  0.00226439     0.06400
C160        C  0.09792608  0.38240294  0.03308533    -0.02100
Br161      Br  0.06784242  0.38732703  0.07836237    -0.01800
H162        H  0.12856666  0.33861951  0.05565974     0.10400
H163        H  0.11218341  0.41788903  0.44573322     0.08400
Br164      Br  0.17028069  0.36823859  0.42049831    -0.02200
C165        C  0.36544148  0.36152760  0.03660953    -0.08900
C166        C  0.34873883  0.35466224  0.00207351     0.07300
C167        C  0.35939760  0.37584264  0.47050593    -0.02600
C168        C  0.38633052  0.40274515  0.47398341    -0.07100
C169        C  0.40305810  0.40904257  0.00835036     0.06400
C170        C  0.39230443  0.38851304  0.03991477    -0.02100
Br171      Br  0.41369739  0.39663986  0.08787111    -0.01800
H172        H  0.35749134  0.34593046  0.06125523     0.10400
H173        H  0.39484563  0.41840925  0.44955249     0.08400
Br174      Br  0.34049426  0.36799612  0.42126055    -0.02200
C175        C  0.38002621  0.09415215  0.47859788    -0.08900
C176        C  0.40506908  0.09707361  0.00734731     0.07300
C177        C  0.40159524  0.12599877  0.03392902    -0.02600
C178        C  0.37447312  0.15248027  0.03030290    -0.07100
C179        C  0.34957955  0.15029256  0.00097215     0.06400
C180        C  0.35213067  0.11996739  0.47540256    -0.02100
Br181      Br  0.31910200  0.11114766  0.43541162    -0.01800
H182        H  0.38222542  0.07143041  0.45849603     0.10400
H183        H  0.37262352  0.17462756  0.05106831     0.08400
Br184      Br  0.43230081  0.12953222  0.07646530    -0.02200
C185        C  0.09991063  0.11753334  0.03260150    -0.08900
C186        C  0.09550138  0.09590926  0.00009149     0.07300
C187        C  0.11854366  0.10146023  0.46811693    -0.02600
C188        C  0.14551190  0.12858967  0.46898627    -0.07100
C189        C  0.15002733  0.15063841  0.00147259     0.06400
C190        C  0.12691847  0.14456841  0.03373737    -0.02100
Br191      Br  0.13163488  0.17028295  0.08110432    -0.01800
H192        H  0.08242334  0.11299984  0.05742581     0.10400
H193        H  0.16274549  0.13268291  0.44390415     0.08400
Br194      Br  0.11363476  0.07300249  0.42255079    -0.02200
N195        N  0.05569285  0.00097822  0.50075859    -0.36300
N196        N  0.50042091  0.05831917  0.50590818    -0.56900
N197        N  0.44414596  0.00264380  0.50926591    -0.36300
N198        N  0.49902067  0.44545563  0.50766194    -0.56900
C199        C  0.07670894  0.03081102  0.50689720     0.27300
C200        C  0.07593329  0.47116480  0.50820760     0.27300
C201        C  0.42405266  0.03292036  0.51790832     0.27300
C202        C  0.42325440  0.47333686  0.51821189     0.27300
C203        C  0.03005432  0.07872689  0.49655289     0.35900
C204        C  0.47089878  0.07955527  0.50060364     0.35900
C205        C  0.02817938  0.42369146  0.49932895     0.35900
C206        C  0.46906239  0.42464729  0.50246122     0.35900
C207        C  0.11086485  0.01983114  0.51799749    -0.21600
C208        C  0.11036854  0.48214998  0.51883845    -0.21600
C209        C  0.39003431  0.02275522  0.53283660    -0.21600
C210        C  0.38948450  0.48506309  0.53288859    -0.21600
C211        C  0.01939099  0.11325716  0.48569447    -0.22700
C212        C  0.48184336  0.11372241  0.48805645    -0.22700
C213        C  0.01675164  0.38875088  0.48933842    -0.22700
C214        C  0.47921872  0.38936615  0.49128510    -0.22700
C215        C  0.06657773  0.06746963  0.50043344    -0.18000
C216        C  0.06491515  0.43431669  0.50321868    -0.18000
C217        C  0.43276364  0.43649103  0.51004966    -0.18000
C218        C  0.43435969  0.06914742  0.50915457    -0.18000
H219        H  0.13389697  0.03714308  0.52441786     0.14900
H220        H  0.13293097  0.46479877  0.52605481     0.14900
H221        H  0.36759350  0.04062445  0.54178869     0.14900
H222        H  0.36656168  0.46821392  0.54189684     0.14900
H223        H  0.03685710  0.13580068  0.47720376     0.13200
H224        H  0.46462012  0.13673335  0.48175516     0.13200
H225        H  0.03369413  0.36522009  0.48177235     0.13200
H226        H  0.46146518  0.36637177  0.48558218     0.13200
H227        H  0.03064173  0.00080710  0.48799093     0.26400
H228        H  0.46844733  0.00189784  0.49315454     0.26400
N229        N  0.44473183  0.49910500  0.74654983    -0.36300
N230        N  0.00012457  0.44270973  0.74735284    -0.56900
N231        N  0.05593165  0.49897251  0.75147855    -0.36300
N232        N  0.00052407  0.05532762  0.74795183    -0.56900
C233        C  0.42497940  0.46922250  0.73714742     0.27300
C234        C  0.42510373  0.02884811  0.73767543     0.27300
C235        C  0.07650484  0.46886806  0.74330201     0.27300
C236        C  0.07684656  0.02849653  0.74319515     0.27300
C237        C  0.47005132  0.42186720  0.75316697     0.35900
C238        C  0.02891227  0.42191989  0.75621911     0.35900
C239        C  0.47062785  0.07678418  0.75321406     0.35900
C240        C  0.02967247  0.07668738  0.75504598     0.35900
C241        C  0.39234194  0.48006672  0.72224269    -0.21600
C242        C  0.39244085  0.01777046  0.72252014    -0.21600
C243        C  0.11092050  0.47937690  0.72978163    -0.21600
C244        C  0.11118196  0.01706134  0.72986837    -0.21600
C245        C  0.47971886  0.38755585  0.76551292    -0.22700
C246        C  0.01708826  0.38767993  0.76774396    -0.22700
C247        C  0.48081554  0.11204329  0.76357977    -0.22700
C248        C  0.01831798  0.11200265  0.76464225    -0.22700
C249        C  0.43435186  0.43269851  0.74487095    -0.18000
C250        C  0.43464965  0.06559340  0.74575129    -0.18000
C251        C  0.06640956  0.06542102  0.74955553    -0.18000
C252        C  0.06578299  0.43234864  0.75030067    -0.18000
H253        H  0.37043949  0.46265108  0.71282353     0.14900
H254        H  0.37063340  0.03507072  0.71330160     0.14900
H255        H  0.13363926  0.46173531  0.72115547     0.14900
H256        H  0.13412478  0.03409761  0.72133129     0.14900
H257        H  0.46178661  0.36472532  0.77181617     0.13200
H258        H  0.03372187  0.36487993  0.77594160     0.13200
H259        H  0.46314946  0.13549997  0.76901658     0.13200
H260        H  0.03530895  0.13541487  0.77100810     0.13200
H261        H  0.46782800  0.49927599  0.76265963     0.26400
H262        H  0.03074722  0.49938826  0.76608624     0.26400
Zn263      Zn  0.29308870  0.25267129  0.52981193     1.49700
Zn264      Zn  0.20580465  0.25232646  0.53175750     1.49400
Zn265      Zn  0.25123279  0.29522540  0.96732288     1.49100
Zn266      Zn  0.25081652  0.20719415  0.96703011     1.49500
O267        O  0.25011745  0.25184123  0.49886934    -1.83800
O268        O  0.27884998  0.25176551  0.58472058    -0.74500
O269        O  0.17437870  0.29627691  0.52194978    -0.74300
O270        O  0.29479624  0.32764121  0.97765341    -0.73800
O271        O  0.21808752  0.25263833  0.58685111    -0.74500
O272        O  0.32353355  0.29789261  0.52157211    -0.74100
O273        O  0.20584545  0.32558254  0.97724962    -0.74700
O274        O  0.25180598  0.21975827  0.91169524    -0.74100
O275        O  0.17528023  0.20742170  0.52258441    -0.74800
O276        O  0.25263983  0.28075394  0.91211979    -0.74200
O277        O  0.20605539  0.17607109  0.97756840    -0.74700
O278        O  0.29470049  0.17580362  0.97730673    -0.74600
O279        O  0.32438221  0.20826272  0.51962758    -0.74400
C280        C  0.24841752  0.25181432  0.60322447     0.77400
C281        C  0.17771497  0.32277166  0.49922693     0.77900
C282        C  0.32095572  0.32518009  0.50005230     0.76900
C283        C  0.25227336  0.25004869  0.89442076     0.77200
C284        C  0.17862941  0.17952963  0.50065785     0.78400
C285        C  0.32142890  0.17962735  0.49890454     0.77400
Zn286      Zn  0.25038320  0.20550217  0.77967269     1.49700
Zn287      Zn  0.20622148  0.24913157  0.71911712     1.49400
Zn288      Zn  0.25120158  0.29327513  0.78100977     1.49100
Zn289      Zn  0.29363003  0.24870517  0.71444933     1.49500
O290        O  0.25037763  0.24917273  0.74860845    -1.83800
O291        O  0.20592994  0.17433819  0.77097325    -0.74500
O292        O  0.17568397  0.29353936  0.73191129    -0.74300
O293        O  0.25219164  0.28005597  0.83592396    -0.73800
O294        O  0.17528977  0.20422596  0.72849449    -0.74500
O295        O  0.25095103  0.21909814  0.83514115    -0.74100
O296        O  0.20687193  0.32489001  0.77386168    -0.74700
O297        O  0.32512025  0.29312658  0.72286998    -0.74100
O298        O  0.21842304  0.25070697  0.66344320    -0.74800
O299        O  0.29554237  0.32424354  0.76886955    -0.74200
O300        O  0.27919996  0.24945849  0.66033835    -0.74700
O301        O  0.32461652  0.20389129  0.72182263    -0.74600
O302        O  0.29463908  0.17416135  0.76717025    -0.74400
C303        C  0.17860321  0.17709610  0.75012023     0.77400
C304        C  0.17922041  0.32151376  0.75346994     0.77900
C305        C  0.25189633  0.24968612  0.85300897     0.76900
C306        C  0.32232600  0.32089864  0.74502767     0.77200
C307        C  0.24863173  0.25064112  0.64447487     0.78400
C308        C  0.32166745  0.17672376  0.74364472     0.77400
C309        C  0.12093845  0.40623780  0.77866387    -0.08900
C310        C  0.09466622  0.40380541  0.75105523     0.07300
C311        C  0.09672620  0.37490946  0.72425472    -0.02600
C312        C  0.12410886  0.34850537  0.72608699    -0.07100
C313        C  0.15061537  0.35053312  0.75379116     0.06400
C314        C  0.14903132  0.38036422  0.78005861    -0.02100
Br315      Br  0.18383753  0.38847944  0.81845433    -0.01800
H316        H  0.11971174  0.42871798  0.79910152     0.10400
H317        H  0.12489772  0.32655751  0.70507185     0.08400
Br318      Br  0.06377947  0.37097964  0.68360577    -0.02200
C319        C  0.35689327  0.37047909  0.77677466    -0.08900
C320        C  0.35090229  0.34971412  0.74375652     0.07300
C321        C  0.37229831  0.35717768  0.71064924    -0.02600
C322        C  0.39930268  0.38431334  0.71149544    -0.07100
C323        C  0.40525779  0.40450920  0.74465624     0.06400
C324        C  0.38377002  0.39761339  0.77739471    -0.02100
Br325      Br  0.39073356  0.42431743  0.82368632    -0.01800
H326        H  0.34092557  0.36530622  0.80246989     0.10400
H327        H  0.41559948  0.38991864  0.68611293     0.08400
Br328      Br  0.36499632  0.33310770  0.66286347    -0.02200
C329        C  0.40402169  0.11682770  0.71417872    -0.08900
C330        C  0.40555575  0.09382077  0.74516211     0.07300
C331        C  0.37886695  0.09707993  0.77459307    -0.02600
C332        C  0.35190208  0.12406563  0.77336077    -0.07100
C333        C  0.35040384  0.14783138  0.74265147     0.06400
C334        C  0.37654238  0.14332456  0.71232574    -0.02100
Br335      Br  0.37547745  0.17025840  0.66640006    -0.01800
H336        H  0.42399402  0.11364352  0.69097741     0.10400
H337        H  0.33211701  0.12649122  0.79679087     0.08400
Br338      Br  0.37824191  0.06525685  0.81704167    -0.02200
C339        C  0.11374080  0.10133762  0.78243367    -0.08900
C340        C  0.09541652  0.09377041  0.74928083     0.07300
C341        C  0.10480319  0.11307989  0.71643378    -0.02600
C342        C  0.13177256  0.14020183  0.71733405    -0.07100
C343        C  0.15023122  0.14810776  0.75058608     0.06400
C344        C  0.14100931  0.12815379  0.78340512    -0.02100
Br345      Br  0.16287123  0.13728590  0.83104816    -0.01800
H346        H  0.10652080  0.08647341  0.80778044     0.10400
H347        H  0.13869489  0.15480193  0.69175015     0.08400
Br348      Br  0.08202041  0.10248362  0.66966184    -0.02200
C349        C  0.12524543  0.35565286  0.53133737    -0.08900
C350        C  0.14849783  0.35102489  0.49904580     0.07300
C351        C  0.14322721  0.37365052  0.96775536    -0.02600
C352        C  0.11604013  0.40064225  0.96980904    -0.07100
C353        C  0.09340798  0.40536076  0.50223860     0.06400
C354        C  0.09792837  0.38246107  0.53307262    -0.02100
Br355      Br  0.06785186  0.38740800  0.57835275    -0.01800
H356        H  0.12857388  0.33869055  0.55566585     0.10400
H357        H  0.11220952  0.41789008  0.94577643     0.08400
Br358      Br  0.17033316  0.36827526  0.92053601    -0.02200
C359        C  0.36542605  0.36155151  0.53658610    -0.08900
C360        C  0.34872563  0.35468299  0.50204961     0.07300
C361        C  0.35940428  0.37582908  0.97053308    -0.02600
C362        C  0.38633110  0.40273693  0.97401318    -0.07100
C363        C  0.40305479  0.40905388  0.50832188     0.06400
C364        C  0.39229317  0.38853243  0.53988932    -0.02100
Br365      Br  0.41367838  0.39666552  0.58784862    -0.01800
H366        H  0.35747030  0.34596066  0.56123447     0.10400
H367        H  0.39484211  0.41840537  0.94958394     0.08400
Br368      Br  0.34050377  0.36798275  0.92128645    -0.02200
C369        C  0.38005574  0.09413648  0.97856920    -0.08900
C370        C  0.40503101  0.09708325  0.50738421     0.07300
C371        C  0.40154832  0.12600095  0.53397348    -0.02600
C372        C  0.37442969  0.15248567  0.53034319    -0.07100
C373        C  0.34954842  0.15030687  0.50100053     0.06400
C374        C  0.35215695  0.11994936  0.97537813    -0.02100
Br375      Br  0.31911390  0.11111737  0.93540241    -0.01800
H376        H  0.38224848  0.07140974  0.95847290     0.10400
H377        H  0.37257350  0.17462882  0.55111298     0.08400
Br378      Br  0.43223974  0.12951973  0.57652178    -0.02200
C379        C  0.09988847  0.11756517  0.53260865    -0.08900
C380        C  0.09546448  0.09596001  0.50008791     0.07300
C381        C  0.11859952  0.10138610  0.96812971    -0.02600
C382        C  0.14556499  0.12851905  0.96899391    -0.07100
C383        C  0.14999203  0.15068637  0.50147713     0.06400
C384        C  0.12689595  0.14460082  0.53374731    -0.02100
Br385      Br  0.13163106  0.17029581  0.58112228    -0.01800
H386        H  0.08241329  0.11301647  0.55743838     0.10400
H387        H  0.16281085  0.13259620  0.94391734     0.08400
Br388      Br  0.11372210  0.07288919  0.92258375    -0.02200
N389        N  0.05570947  0.50093769  0.00078380    -0.36300
N390        N  0.50044964  0.55828890  0.00589637    -0.56900
N391        N  0.44416445  0.50262588  0.00926426    -0.36300
N392        N  0.49902894  0.94542720  0.00769471    -0.56900
C393        C  0.07672856  0.53076780  0.00692408     0.27300
C394        C  0.07594148  0.97112318  0.00824798     0.27300
C395        C  0.42407559  0.53290907  0.01789104     0.27300
C396        C  0.42326698  0.97332596  0.01822139     0.27300
C397        C  0.03008951  0.57868688  0.99653981     0.35900
C398        C  0.47093353  0.57952783  0.00057392     0.35900
C399        C  0.02818389  0.92365792  0.99936212     0.35900
C400        C  0.46906746  0.92462459  0.00249129     0.35900
C401        C  0.11087655  0.51978508  0.01804458    -0.21600
C402        C  0.11037318  0.98210447  0.01889339    -0.21600
C403        C  0.39005398  0.52275523  0.03282035    -0.21600
C404        C  0.38949778  0.98506326  0.03288936    -0.21600
C405        C  0.01943633  0.61321389  0.98566151    -0.22700
C406        C  0.48188825  0.61368707  0.98801314    -0.22700
C407        C  0.01675066  0.88872003  0.98936898    -0.22700
C408        C  0.47921798  0.88934190  0.99131456    -0.22700
C409        C  0.06660880  0.56742497  0.00043917    -0.18000
C410        C  0.06492077  0.93427722  0.00325417    -0.18000
C411        C  0.43277056  0.93647582  0.01007500    -0.18000
C412        C  0.43439107  0.56913109  0.00912416    -0.18000
H413        H  0.13390883  0.53709461  0.02447058     0.14900
H414        H  0.13292905  0.96475075  0.02612306     0.14900
H415        H  0.36761546  0.54063136  0.04176259     0.14900
H416        H  0.36657147  0.96822110  0.04190275     0.14900
H417        H  0.03690931  0.63575041  0.97716559     0.13200
H418        H  0.46467137  0.63669835  0.98169714     0.13200
H419        H  0.03368938  0.86518678  0.98180202     0.13200
H420        H  0.46146060  0.86635130  0.98560863     0.13200
H421        H  0.03066554  0.50076729  0.98800169     0.26400
H422        H  0.46846777  0.50186928  0.99315642     0.26400
N423        N  0.44471025  0.99911090  0.24655485    -0.36300
N424        N  0.00011320  0.94272764  0.24736744    -0.56900
N425        N  0.05591053  0.99900146  0.25147518    -0.36300
N426        N  0.00049212  0.55534511  0.24794093    -0.56900
C427        C  0.42496029  0.96922181  0.23716886     0.27300
C428        C  0.42507587  0.52884715  0.23767203     0.27300
C429        C  0.07648855  0.96890119  0.24329388     0.27300
C430        C  0.07681830  0.52852940  0.24318819     0.27300
C431        C  0.47004529  0.92187968  0.25319191     0.35900
C432        C  0.02890830  0.92194386  0.25622492     0.35900
C433        C  0.47059132  0.57679596  0.25319804     0.35900
C434        C  0.02963542  0.57671079  0.25503832     0.35900
C435        C  0.39231776  0.98005508  0.22226679    -0.21600
C436        C  0.39241147  0.51775848  0.22252797    -0.21600
C437        C  0.11089959  0.97941703  0.22976630    -0.21600
C438        C  0.11115363  0.51710137  0.22985421    -0.21600
C439        C  0.47972379  0.88757074  0.26553563    -0.22700
C440        C  0.01709434  0.88770216  0.26775461    -0.22700
C441        C  0.48077093  0.61205762  0.26356350    -0.22700
C442        C  0.01827320  0.61202407  0.26463254    -0.22700
C443        C  0.43434100  0.93270234  0.24490319    -0.18000
C444        C  0.43461593  0.56559647  0.24573475    -0.18000
C445        C  0.06637481  0.56545144  0.24955075    -0.18000
C446        C  0.06577588  0.93237962  0.25029475    -0.18000
H447        H  0.37041523  0.96263292  0.21285989     0.14900
H448        H  0.37059899  0.53505144  0.21330784     0.14900
H449        H  0.13362037  0.96178016  0.22113483     0.14900
H450        H  0.13409130  0.53414241  0.22131244     0.14900
H451        H  0.46179807  0.86473651  0.27184421     0.13200
H452        H  0.03373517  0.86490560  0.27594727     0.13200
H453        H  0.46309960  0.63551083  0.26899756     0.13200
H454        H  0.03525906  0.63543957  0.27100041     0.13200
H455        H  0.46780941  0.99929156  0.26266013     0.26400
H456        H  0.03072862  0.99941297  0.26608782     0.26400
Zn457      Zn  0.29310322  0.75264305  0.02981466     1.49700
Zn458      Zn  0.20581986  0.75229186  0.03174850     1.49400
Zn459      Zn  0.25121360  0.79524406  0.46731639     1.49100
Zn460      Zn  0.25079527  0.70721465  0.46704140     1.49500
O461        O  0.25013561  0.75181569  0.99886636    -1.83800
O462        O  0.27885762  0.75174212  0.08472283    -0.74500
O463        O  0.17438834  0.79623540  0.02193928    -0.74300
O464        O  0.29478146  0.82766037  0.47763227    -0.73800
O465        O  0.21809527  0.75261637  0.08684344    -0.74500
O466        O  0.32355204  0.79786442  0.02158376    -0.74100
O467        O  0.20582812  0.82560438  0.47723979    -0.74700
O468        O  0.25178746  0.71976463  0.41170129    -0.74100
O469        O  0.17530662  0.70738000  0.02257487    -0.74800
O470        O  0.25261169  0.78076014  0.41211816    -0.74200
O471        O  0.20602782  0.67610488  0.47758224    -0.74700
O472        O  0.29467153  0.67581853  0.47733230    -0.74600
O473        O  0.32439607  0.70823482  0.01962379    -0.74400
C474        C  0.24842244  0.75179753  0.10322215     0.77400
C475        C  0.17772778  0.82273955  0.99922880     0.77900
C476        C  0.32097145  0.82515721  0.00007149     0.76900
C477        C  0.25224826  0.75005291  0.39442293     0.77200
C478        C  0.17865879  0.67948875  0.00064770     0.78400
C479        C  0.32145285  0.67960788  0.99888599     0.77400
Zn480      Zn  0.25035826  0.70551297  0.27967000     1.49700
Zn481      Zn  0.20620604  0.74915124  0.21911027     1.49400
Zn482      Zn  0.25117951  0.79328486  0.28101623     1.49100
Zn483      Zn  0.29361559  0.74871946  0.21445748     1.49500
O484        O  0.25035805  0.74918630  0.24860926    -1.83800
O485        O  0.20590118  0.67435890  0.27096701    -0.74500
O486        O  0.17567974  0.79357256  0.23188804    -0.74300
O487        O  0.25215683  0.78005853  0.33592742    -0.73800
O488        O  0.17526106  0.70425513  0.22849495    -0.74500
O489        O  0.25093050  0.71910051  0.33514204    -0.74100
O490        O  0.20685781  0.82490804  0.27385799    -0.74700
O491        O  0.32510641  0.79313826  0.22289222    -0.74100
O492        O  0.21841763  0.75070493  0.16343655    -0.74800
O493        O  0.29552824  0.82424913  0.26889698    -0.74200
O494        O  0.27919491  0.74947044  0.16034369    -0.74700
O495        O  0.32459545  0.70389994  0.22182479    -0.74600
O496        O  0.29460477  0.67416298  0.26715898    -0.74400
C497        C  0.17857256  0.67712264  0.25011788     0.77400
C498        C  0.17921482  0.82154322  0.25345258     0.77900
C499        C  0.25186875  0.74968826  0.35301119     0.76900
C500        C  0.32231347  0.82090536  0.24505719     0.77200
C501        C  0.24862953  0.75063968  0.14447369     0.78400
C502        C  0.32163550  0.67672543  0.24363662     0.77400
C503        C  0.12094629  0.90627909  0.27863988    -0.08900
C504        C  0.09466544  0.90384165  0.25104037     0.07300
C505        C  0.09672113  0.87494419  0.22424156    -0.02600
C506        C  0.12410453  0.84854022  0.22607021    -0.07100
C507        C  0.15061627  0.85056953  0.25376912     0.06400
C508        C  0.14904040  0.88040625  0.28003052    -0.02100
Br509      Br  0.18386009  0.88853234  0.31841159    -0.01800
H510        H  0.11972450  0.92876193  0.29907452     0.10400
H511        H  0.12488770  0.82658937  0.20505842     0.08400
Br512      Br  0.06376437  0.87101070  0.18360199    -0.02200
C513        C  0.35691208  0.87045185  0.27682428    -0.08900
C514        C  0.35089266  0.84971699  0.24379338     0.07300
C515        C  0.37226139  0.85720758  0.21067619    -0.02600
C516        C  0.39926891  0.88433944  0.21152299    -0.07100
C517        C  0.40525270  0.90450673  0.24469487     0.06400
C518        C  0.38379137  0.89758445  0.27744499    -0.02100
Br519      Br  0.39078986  0.92425532  0.32374926    -0.01800
H520        H  0.34096332  0.86525788  0.30252650     0.10400
H521        H  0.41554307  0.88996700  0.18613145     0.08400
Br522      Br  0.36490911  0.83318480  0.16287677    -0.02200
C523        C  0.40396534  0.61680841  0.21414754    -0.08900
C524        C  0.40551630  0.59381726  0.24514211     0.07300
C525        C  0.37883808  0.59708497  0.27458238    -0.02600
C526        C  0.35187431  0.62407185  0.27335381    -0.07100
C527        C  0.35036356  0.64782590  0.24263654     0.06400
C528        C  0.37648215  0.64330154  0.21229577    -0.02100
Br529      Br  0.37537389  0.67019879  0.16634970    -0.01800
H530        H  0.42392550  0.61361324  0.19093661     0.10400
H531        H  0.33210026  0.62650804  0.29679279     0.08400
Br532      Br  0.37822401  0.56526967  0.31703680    -0.02200
C533        C  0.11372181  0.60135022  0.28242339    -0.08900
C534        C  0.09537763  0.59380468  0.24927834     0.07300
C535        C  0.10474859  0.61313098  0.21643820    -0.02600
C536        C  0.13171904  0.64025166  0.21733945    -0.07100
C537        C  0.15019709  0.64813724  0.25058426     0.06400
C538        C  0.14099419  0.62816223  0.28339477    -0.02100
Br539      Br  0.16289293  0.63725147  0.33102653    -0.01800
H540        H  0.10651700  0.58646947  0.30776355     0.10400
H541        H  0.13862878  0.65486475  0.19176057     0.08400
Br542      Br  0.08194842  0.60255360  0.16967175    -0.02200
C543        C  0.12524477  0.85559671  0.03134113    -0.08900
C544        C  0.14850915  0.85099165  0.99905524     0.07300
C545        C  0.14320432  0.87366092  0.46773060    -0.02600
C546        C  0.11602257  0.90065846  0.46977708    -0.07100
C547        C  0.09341263  0.90532050  0.00226434     0.06400
C548        C  0.09792599  0.88240291  0.03308526    -0.02100
Br549      Br  0.06784238  0.88732710  0.07836234    -0.01800
H550        H  0.12856650  0.83861945  0.05565970     0.10400
H551        H  0.11218342  0.91788906  0.44573311     0.08400
Br552      Br  0.17028073  0.86823865  0.42049827    -0.02200
C553        C  0.36544142  0.86152764  0.03660953    -0.08900
C554        C  0.34873877  0.85466226  0.00207351     0.07300
C555        C  0.35939756  0.87584269  0.47050593    -0.02600
C556        C  0.38633048  0.90274520  0.47398342    -0.07100
C557        C  0.40305810  0.90904252  0.00835028     0.06400
C558        C  0.39230441  0.88851305  0.03991473    -0.02100
Br559      Br  0.41369737  0.89663994  0.08787108    -0.01800
H560        H  0.35749125  0.84593053  0.06125525     0.10400
H561        H  0.39484557  0.91840932  0.44955251     0.08400
Br562      Br  0.34049423  0.86799620  0.42126055    -0.02200
C563        C  0.38002620  0.59415216  0.47859781    -0.08900
C564        C  0.40506908  0.59707368  0.00734730     0.07300
C565        C  0.40159525  0.62599886  0.03392898    -0.02600
C566        C  0.37447314  0.65248036  0.03030284    -0.07100
C567        C  0.34957955  0.65029261  0.00097212     0.06400
C568        C  0.35213067  0.61996741  0.47540249    -0.02100
Br569      Br  0.31910198  0.61114769  0.43541157    -0.01800
H570        H  0.38222539  0.57143041  0.45849596     0.10400
H571        H  0.37262357  0.67462767  0.05106822     0.08400
Br572      Br  0.43230079  0.62953230  0.07646529    -0.02200
C573        C  0.09991067  0.61753328  0.03260164    -0.08900
C574        C  0.09550141  0.59590921  0.00009163     0.07300
C575        C  0.11854373  0.60146018  0.46811703    -0.02600
C576        C  0.14551196  0.62858963  0.46898637    -0.07100
C577        C  0.15002729  0.65063842  0.00147266     0.06400
C578        C  0.12691847  0.64456841  0.03373747    -0.02100
Br579      Br  0.13163485  0.67028303  0.08110437    -0.01800
H580        H  0.08242340  0.61299976  0.05742597     0.10400
H581        H  0.16274555  0.63268285  0.44390425     0.08400
Br582      Br  0.11363478  0.57300249  0.42255089    -0.02200
N583        N  0.05569288  0.50097820  0.50075859    -0.36300
N584        N  0.50042093  0.55831913  0.50590811    -0.56900
N585        N  0.44414598  0.50264378  0.50926589    -0.36300
N586        N  0.49902066  0.94545561  0.50766194    -0.56900
C587        C  0.07670898  0.53081100  0.50689720     0.27300
C588        C  0.07593326  0.97116481  0.50820756     0.27300
C589        C  0.42405266  0.53292035  0.51790823     0.27300
C590        C  0.42325441  0.97333686  0.51821195     0.27300
C591        C  0.03005434  0.57872688  0.49655291     0.35900
C592        C  0.47089879  0.57955524  0.50060357     0.35900
C593        C  0.02817935  0.92369147  0.49932890     0.35900
C594        C  0.46906238  0.92464728  0.50246123     0.35900
C595        C  0.11086490  0.51983113  0.51799748    -0.21600
C596        C  0.11036851  0.98214999  0.51883842    -0.21600
C597        C  0.39003427  0.52275521  0.53283642    -0.21600
C598        C  0.38948454  0.98506310  0.53288876    -0.21600
C599        C  0.01939101  0.61325714  0.48569446    -0.22700
C600        C  0.48184338  0.61372239  0.48805641    -0.22700
C601        C  0.01675159  0.88875089  0.48933839    -0.22700
C602        C  0.47921869  0.88936612  0.49128511    -0.22700
C603        C  0.06657775  0.56746962  0.50043350    -0.18000
C604        C  0.06491513  0.93431671  0.50321857    -0.18000
C605        C  0.43276362  0.93649104  0.51004967    -0.18000
C606        C  0.43435969  0.56914741  0.50915449    -0.18000
H607        H  0.13389702  0.53714306  0.52441785     0.14900
H608        H  0.13293094  0.96479876  0.52605476     0.14900
H609        H  0.36759344  0.54062445  0.54178841     0.14900
H610        H  0.36656174  0.96821393  0.54189709     0.14900
H611        H  0.03685714  0.63580066  0.47720376     0.13200
H612        H  0.46462015  0.63673334  0.48175513     0.13200
H613        H  0.03369407  0.86522010  0.48177229     0.13200
H614        H  0.46146515  0.86637175  0.48558219     0.13200
H615        H  0.03064175  0.50080708  0.48799095     0.26400
H616        H  0.46844737  0.50189782  0.49315458     0.26400
N617        N  0.44473184  0.99910505  0.74654982    -0.36300
N618        N  0.00012457  0.94270970  0.74735266    -0.56900
N619        N  0.05593162  0.99897253  0.75147854    -0.36300
N620        N  0.00052408  0.55532758  0.74795186    -0.56900
C621        C  0.42497940  0.96922256  0.73714743     0.27300
C622        C  0.42510372  0.52884805  0.73767543     0.27300
C623        C  0.07650483  0.96886809  0.74330200     0.27300
C624        C  0.07684661  0.52849651  0.74319514     0.27300
C625        C  0.47005130  0.92186725  0.75316705     0.35900
C626        C  0.02891226  0.92191987  0.75621894     0.35900
C627        C  0.47062784  0.57678409  0.75321406     0.35900
C628        C  0.02967249  0.57668734  0.75504597     0.35900
C629        C  0.39234194  0.98006679  0.72224271    -0.21600
C630        C  0.39244085  0.51777039  0.72252012    -0.21600
C631        C  0.11092049  0.97937695  0.72978165    -0.21600
C632        C  0.11118199  0.51706129  0.72986836    -0.21600
C633        C  0.47971882  0.88755587  0.76551294    -0.22700
C634        C  0.01708825  0.88767992  0.76774378    -0.22700
C635        C  0.48081554  0.61204322  0.76357972    -0.22700
C636        C  0.01831801  0.61200262  0.76464222    -0.22700
C637        C  0.43435185  0.93269856  0.74487097    -0.18000
C638        C  0.43464963  0.56559333  0.74575127    -0.18000
C639        C  0.06640960  0.56542099  0.74955552    -0.18000
C640        C  0.06578300  0.93234865  0.75030061    -0.18000
H641        H  0.37043948  0.96265114  0.71282356     0.14900
H642        H  0.37063340  0.53507064  0.71330156     0.14900
H643        H  0.13363927  0.96173538  0.72115549     0.14900
H644        H  0.13412481  0.53409756  0.72133128     0.14900
H645        H  0.46178657  0.86472533  0.77181612     0.13200
H646        H  0.03372186  0.86487993  0.77594143     0.13200
H647        H  0.46314947  0.63549990  0.76901650     0.13200
H648        H  0.03530898  0.63541485  0.77100805     0.13200
H649        H  0.46782801  0.99927604  0.76265962     0.26400
H650        H  0.03074718  0.99938826  0.76608620     0.26400
Zn651      Zn  0.29308870  0.75267129  0.52981187     1.49700
Zn652      Zn  0.20580462  0.75232651  0.53175749     1.49400
Zn653      Zn  0.25123277  0.79522542  0.96732289     1.49100
Zn654      Zn  0.25081649  0.70719413  0.96703010     1.49500
O655        O  0.25011743  0.75184122  0.49886933    -1.83800
O656        O  0.27884996  0.75176541  0.58472053    -0.74500
O657        O  0.17437868  0.79627697  0.52194982    -0.74300
O658        O  0.29479616  0.82764127  0.97765344    -0.73800
O659        O  0.21808750  0.75263844  0.58685110    -0.74500
O660        O  0.32353352  0.79789264  0.52157212    -0.74100
O661        O  0.20584543  0.82558255  0.97724965    -0.74700
O662        O  0.25180595  0.71975828  0.91169523    -0.74100
O663        O  0.17528022  0.70742175  0.52258439    -0.74800
O664        O  0.25263980  0.78075397  0.91211981    -0.74200
O665        O  0.20605535  0.67607106  0.97756843    -0.74700
O666        O  0.29470046  0.67580361  0.97730673    -0.74600
O667        O  0.32438226  0.70826280  0.51962740    -0.74400
C668        C  0.24841751  0.75181433  0.60322444     0.77400
C669        C  0.17771495  0.82277168  0.49922692     0.77900
C670        C  0.32095569  0.82518011  0.50005229     0.76900
C671        C  0.25227332  0.75004872  0.89442076     0.77200
C672        C  0.17862942  0.67952965  0.50065787     0.78400
C673        C  0.32142892  0.67962740  0.49890442     0.77400
Zn674      Zn  0.25038320  0.70550224  0.77967269     1.49700
Zn675      Zn  0.20622148  0.74913160  0.71911710     1.49400
Zn676      Zn  0.25120154  0.79327516  0.78100978     1.49100
Zn677      Zn  0.29363001  0.74870521  0.71444931     1.49500
O678        O  0.25037762  0.74917277  0.74860844    -1.83800
O679        O  0.20592995  0.67433827  0.77097322    -0.74500
O680        O  0.17568391  0.79353933  0.73191134    -0.74300
O681        O  0.25219147  0.78005602  0.83592399    -0.73800
O682        O  0.17528978  0.70422600  0.72849444    -0.74500
O683        O  0.25095103  0.71909819  0.83514114    -0.74100
O684        O  0.20687193  0.82489003  0.77386164    -0.74700
O685        O  0.32512022  0.79312661  0.72286998    -0.74100
O686        O  0.21842304  0.75070706  0.66344318    -0.74800
O687        O  0.29554239  0.82424353  0.76886961    -0.74200
O688        O  0.27919996  0.74945851  0.66033832    -0.74700
O689        O  0.32461653  0.70389132  0.72182260    -0.74600
O690        O  0.29463909  0.67416141  0.76717025    -0.74400
C691        C  0.17860322  0.67709615  0.75012019     0.77400
C692        C  0.17922037  0.82151375  0.75346996     0.77900
C693        C  0.25189625  0.74968617  0.85300897     0.76900
C694        C  0.32232599  0.82089864  0.74502770     0.77200
C695        C  0.24863172  0.75064116  0.64447485     0.78400
C696        C  0.32166746  0.67672380  0.74364470     0.77400
C697        C  0.12093843  0.90623778  0.77866390    -0.08900
C698        C  0.09466624  0.90380542  0.75105521     0.07300
C699        C  0.09672625  0.87490948  0.72425470    -0.02600
C700        C  0.12410887  0.84850538  0.72608701    -0.07100
C701        C  0.15061535  0.85053311  0.75379120     0.06400
C702        C  0.14903130  0.88036420  0.78005864    -0.02100
Br703      Br  0.18383754  0.88847947  0.81845432    -0.01800
H704        H  0.11971171  0.92871797  0.79910155     0.10400
H705        H  0.12489774  0.82655753  0.70507186     0.08400
Br706      Br  0.06377963  0.87097973  0.68360566    -0.02200
C707        C  0.35689333  0.87047903  0.77677469    -0.08900
C708        C  0.35090228  0.84971412  0.74375654     0.07300
C709        C  0.37229824  0.85717774  0.71064923    -0.02600
C710        C  0.39930263  0.88431339  0.71149543    -0.07100
C711        C  0.40525777  0.90450924  0.74465624     0.06400
C712        C  0.38377004  0.89761337  0.77739473    -0.02100
Br713      Br  0.39073360  0.92431733  0.82368639    -0.01800
H714        H  0.34092568  0.86530610  0.80246993     0.10400
H715        H  0.41559940  0.88991871  0.68611290     0.08400
Br716      Br  0.36499609  0.83310784  0.66286347    -0.02200
C717        C  0.40402171  0.61682770  0.71417871    -0.08900
C718        C  0.40555573  0.59382074  0.74516207     0.07300
C719        C  0.37886695  0.59707994  0.77459304    -0.02600
C720        C  0.35190209  0.62406567  0.77336076    -0.07100
C721        C  0.35040385  0.64783142  0.74265146     0.06400
C722        C  0.37654240  0.64332458  0.71232573    -0.02100
Br723      Br  0.37547740  0.67025831  0.66639999    -0.01800
H724        H  0.42399405  0.61364351  0.69097741     0.10400
H725        H  0.33211703  0.62649126  0.79679086     0.08400
Br726      Br  0.37824190  0.56525691  0.81704166    -0.02200
C727        C  0.11374092  0.60133757  0.78243363    -0.08900
C728        C  0.09541657  0.59377039  0.74928081     0.07300
C729        C  0.10480318  0.61307994  0.71643378    -0.02600
C730        C  0.13177255  0.64020188  0.71733404    -0.07100
C731        C  0.15023124  0.64810780  0.75058605     0.06400
C732        C  0.14100938  0.62815379  0.78340508    -0.02100
Br733      Br  0.16287123  0.63728599  0.83104814    -0.01800
H734        H  0.10652098  0.58647332  0.80778038     0.10400
H735        H  0.13869485  0.65480200  0.69175013     0.08400
Br736      Br  0.08202039  0.60248370  0.66966186    -0.02200
C737        C  0.12524541  0.85565289  0.53133731    -0.08900
C738        C  0.14849784  0.85102493  0.49904576     0.07300
C739        C  0.14322720  0.87365051  0.96775535    -0.02600
C740        C  0.11604014  0.90064226  0.96980901    -0.07100
C741        C  0.09340795  0.90536077  0.50223848     0.06400
C742        C  0.09792831  0.88246107  0.53307251    -0.02100
Br743      Br  0.06785178  0.88740805  0.57835260    -0.01800
H744        H  0.12857385  0.83869060  0.55566580     0.10400
H745        H  0.11220957  0.91789010  0.94577640     0.08400
Br746      Br  0.17033311  0.86827512  0.92053600    -0.02200
C747        C  0.36542604  0.86155153  0.53658610    -0.08900
C748        C  0.34872560  0.85468303  0.50204961     0.07300
C749        C  0.35940426  0.87582904  0.97053305    -0.02600
C750        C  0.38633112  0.90273685  0.97401310    -0.07100
C751        C  0.40305478  0.90905390  0.50832188     0.06400
C752        C  0.39229316  0.88853245  0.53988932    -0.02100
Br753      Br  0.41367836  0.89666557  0.58784862    -0.01800
H754        H  0.35747029  0.84596068  0.56123447     0.10400
H755        H  0.39484216  0.91840522  0.94958383     0.08400
Br756      Br  0.34050377  0.86798260  0.92128642    -0.02200
C757        C  0.38005573  0.59413654  0.97856919    -0.08900
C758        C  0.40503101  0.59708327  0.50738412     0.07300
C759        C  0.40154832  0.62600098  0.53397338    -0.02600
C760        C  0.37442969  0.65248569  0.53034310    -0.07100
C761        C  0.34954843  0.65030691  0.50100043     0.06400
C762        C  0.35215694  0.61994941  0.97537810    -0.02100
Br763      Br  0.31911388  0.61111742  0.93540239    -0.01800
H764        H  0.38224847  0.57140979  0.95847290     0.10400
H765        H  0.37257349  0.67462885  0.55111288     0.08400
Br766      Br  0.43223980  0.62951982  0.57652163    -0.02200
C767        C  0.09988846  0.61756522  0.53260869    -0.08900
C768        C  0.09546451  0.59596001  0.50008798     0.07300
C769        C  0.11859951  0.60138608  0.96812984    -0.02600
C770        C  0.14556496  0.62851905  0.96899400    -0.07100
C771        C  0.14999205  0.65068639  0.50147719     0.06400
C772        C  0.12689595  0.64460087  0.53374735    -0.02100
Br773      Br  0.13163103  0.67029590  0.58112229    -0.01800
H774        H  0.08241325  0.61301657  0.55743842     0.10400
H775        H  0.16281079  0.63259621  0.94391742     0.08400
Br776      Br  0.11372207  0.57288919  0.92258389    -0.02200
N777        N  0.55570954  0.00093772  0.00078377    -0.36300
N778        N  0.00044962  0.05828892  0.00589643    -0.56900
N779        N  0.94416447  0.00262591  0.00926438    -0.36300
N780        N  0.99902895  0.44542721  0.00769469    -0.56900
C781        C  0.57672860  0.03076785  0.00692408     0.27300
C782        C  0.57594151  0.47112320  0.00824815     0.27300
C783        C  0.92407556  0.03290909  0.01789116     0.27300
C784        C  0.92326701  0.47332602  0.01822136     0.27300
C785        C  0.53008950  0.07868688  0.99653980     0.35900
C786        C  0.97093351  0.07952786  0.00057406     0.35900
C787        C  0.52818392  0.42365790  0.99936228     0.35900
C788        C  0.96906747  0.42462461  0.00249128     0.35900
C789        C  0.61087659  0.01978515  0.01804462    -0.21600
C790        C  0.61037318  0.48210450  0.01889365    -0.21600
C791        C  0.89005394  0.02275521  0.03282039    -0.21600
C792        C  0.88949780  0.48506331  0.03288931    -0.21600
C793        C  0.51943627  0.11321386  0.98566144    -0.22700
C794        C  0.98188824  0.11368711  0.98801332    -0.22700
C795        C  0.51675071  0.38872002  0.98936907    -0.22700
C796        C  0.97921796  0.38934189  0.99131458    -0.22700
C797        C  0.56660881  0.06742500  0.00043916    -0.18000
C798        C  0.56492080  0.43427723  0.00325435    -0.18000
C799        C  0.93277059  0.43647587  0.01007498    -0.18000
C800        C  0.93439105  0.06913111  0.00912432    -0.18000
H801        H  0.63390885  0.03709469  0.02447069     0.14900
H802        H  0.63292903  0.46475081  0.02612343     0.14900
H803        H  0.86761539  0.04063132  0.04176257     0.14900
H804        H  0.86657151  0.46822116  0.04190275     0.14900
H805        H  0.53690924  0.13575039  0.97716550     0.13200
H806        H  0.96467135  0.13669839  0.98169738     0.13200
H807        H  0.53368945  0.36518681  0.98180207     0.13200
H808        H  0.96146056  0.36635130  0.98560866     0.13200
H809        H  0.53066561  0.00076729  0.98800166     0.26400
H810        H  0.96846778  0.00186936  0.99315655     0.26400
N811        N  0.94471020  0.49911094  0.24655506    -0.36300
N812        N  0.50011318  0.44272772  0.24736743    -0.56900
N813        N  0.55591054  0.49900150  0.25147510    -0.36300
N814        N  0.50049213  0.05534511  0.24794084    -0.56900
C815        C  0.92496022  0.46922188  0.23716904     0.27300
C816        C  0.92507589  0.02884714  0.23767209     0.27300
C817        C  0.57648852  0.46890124  0.24329378     0.27300
C818        C  0.57681829  0.02852939  0.24318811     0.27300
C819        C  0.97004526  0.42187975  0.25319196     0.35900
C820        C  0.52890828  0.42194392  0.25622483     0.35900
C821        C  0.97059134  0.07679593  0.25319822     0.35900
C822        C  0.52963542  0.07671080  0.25503825     0.35900
C823        C  0.89231770  0.48005516  0.22226699    -0.21600
C824        C  0.89241151  0.01775850  0.22252798    -0.21600
C825        C  0.61089957  0.47941705  0.22976620    -0.21600
C826        C  0.61115359  0.01710136  0.22985404    -0.21600
C827        C  0.97972374  0.38757082  0.26553572    -0.22700
C828        C  0.51709435  0.38770219  0.26775447    -0.22700
C829        C  0.98077096  0.11205758  0.26356371    -0.22700
C830        C  0.51827319  0.11202409  0.26463242    -0.22700
C831        C  0.93434095  0.43270240  0.24490328    -0.18000
C832        C  0.93461594  0.06559645  0.24573491    -0.18000
C833        C  0.56637481  0.06545143  0.24955070    -0.18000
C834        C  0.56577585  0.43237967  0.25029464    -0.18000
H835        H  0.87041516  0.46263301  0.21286007     0.14900
H836        H  0.87059905  0.03505148  0.21330785     0.14900
H837        H  0.63362032  0.46178017  0.22113471     0.14900
H838        H  0.63409125  0.03414242  0.22131225     0.14900
H839        H  0.96179801  0.36473660  0.27184430     0.13200
H840        H  0.53373520  0.36490561  0.27594703     0.13200
H841        H  0.96309961  0.13551077  0.26899780     0.13200
H842        H  0.53525905  0.13543960  0.27100029     0.13200
H843        H  0.96780937  0.49929158  0.26266035     0.26400
H844        H  0.53072863  0.49941301  0.26608776     0.26400
Zn845      Zn  0.79310320  0.25264311  0.02981459     1.49700
Zn846      Zn  0.70581984  0.25229190  0.03174847     1.49400
Zn847      Zn  0.75121354  0.29524410  0.46731637     1.49100
Zn848      Zn  0.75079524  0.20721465  0.46704137     1.49500
O849        O  0.75013559  0.25181571  0.99886632    -1.83800
O850        O  0.77885761  0.25174221  0.08472275    -0.74500
O851        O  0.67438830  0.29623539  0.02193923    -0.74300
O852        O  0.79478141  0.32766041  0.47763230    -0.73800
O853        O  0.71809526  0.25261647  0.08684343    -0.74500
O854        O  0.82355208  0.29786443  0.02158376    -0.74100
O855        O  0.70582808  0.32560443  0.47723982    -0.74700
O856        O  0.75178745  0.21976464  0.41170125    -0.74100
O857        O  0.67530663  0.20738005  0.02257481    -0.74800
O858        O  0.75261160  0.28076016  0.41211812    -0.74200
O859        O  0.70602778  0.17610488  0.47758214    -0.74700
O860        O  0.79467149  0.17581850  0.47733233    -0.74600
O861        O  0.82439605  0.20823486  0.01962379    -0.74400
C862        C  0.74842245  0.25179764  0.10322211     0.77400
C863        C  0.67772776  0.32273955  0.99922876     0.77900
C864        C  0.82097153  0.32515717  0.00007142     0.76900
C865        C  0.75224821  0.25005293  0.39442289     0.77200
C866        C  0.67865880  0.17948880  0.00064764     0.78400
C867        C  0.82145286  0.17960792  0.99888598     0.77400
Zn868      Zn  0.75035827  0.20551298  0.27966995     1.49700
Zn869      Zn  0.70620607  0.24915132  0.21911025     1.49400
Zn870      Zn  0.75117951  0.29328493  0.28101620     1.49100
Zn871      Zn  0.79361565  0.24871946  0.21445742     1.49500
O872        O  0.75035807  0.24918636  0.24860921    -1.83800
O873        O  0.70590123  0.17435882  0.27096697    -0.74500
O874        O  0.67567972  0.29357265  0.23188804    -0.74300
O875        O  0.75215689  0.28005854  0.33592737    -0.73800
O876        O  0.67526116  0.20425511  0.22849491    -0.74500
O877        O  0.75093040  0.21910053  0.33514198    -0.74100
O878        O  0.70685779  0.32490816  0.27385797    -0.74700
O879        O  0.82510644  0.29313825  0.22289223    -0.74100
O880        O  0.71841772  0.25070505  0.16343654    -0.74800
O881        O  0.79552824  0.32424916  0.26889696    -0.74200
O882        O  0.77919499  0.24947048  0.16034360    -0.74700
O883        O  0.82459559  0.20389997  0.22182475    -0.74600
O884        O  0.79460488  0.17416307  0.26715897    -0.74400
C885        C  0.67857262  0.17712260  0.25011782     0.77400
C886        C  0.67921478  0.32154332  0.25345258     0.77900
C887        C  0.75186872  0.24968828  0.35301114     0.76900
C888        C  0.82231350  0.32090534  0.24505720     0.77200
C889        C  0.74862960  0.25063978  0.14447364     0.78400
C890        C  0.82163562  0.17672548  0.24363661     0.77400
C891        C  0.62094620  0.40627915  0.27863983    -0.08900
C892        C  0.59466538  0.40384170  0.25104030     0.07300
C893        C  0.59672105  0.37494421  0.22424154    -0.02600
C894        C  0.62410446  0.34854025  0.22607023    -0.07100
C895        C  0.65061621  0.35056960  0.25376911     0.06400
C896        C  0.64904031  0.38040631  0.28003051    -0.02100
Br897      Br  0.68385997  0.38853235  0.31841163    -0.01800
H898        H  0.61972440  0.42876199  0.29907447     0.10400
H899        H  0.62488764  0.32658939  0.20505846     0.08400
Br900      Br  0.56376429  0.37101061  0.18360198    -0.02200
C901        C  0.85691209  0.37045181  0.27682432    -0.08900
C902        C  0.85089272  0.34971693  0.24379343     0.07300
C903        C  0.87226150  0.35720750  0.21067626    -0.02600
C904        C  0.89926895  0.38433943  0.21152307    -0.07100
C905        C  0.90525267  0.40450677  0.24469494     0.06400
C906        C  0.88379133  0.39758445  0.27744505    -0.02100
Br907      Br  0.89078977  0.42425529  0.32374935    -0.01800
H908        H  0.84096330  0.36525785  0.30252652     0.10400
H909        H  0.91554311  0.38996701  0.18613153     0.08400
Br910      Br  0.86490931  0.33318472  0.16287683    -0.02200
C911        C  0.90396540  0.11680837  0.21414764    -0.08900
C912        C  0.90551633  0.09381725  0.24514223     0.07300
C913        C  0.87883808  0.09708499  0.27458248    -0.02600
C914        C  0.85187431  0.12407187  0.27335385    -0.07100
C915        C  0.85036364  0.14782592  0.24263657     0.06400
C916        C  0.87648222  0.14330150  0.21229581    -0.02100
Br917      Br  0.87537389  0.17019865  0.16634969    -0.01800
H918        H  0.92392555  0.11361317  0.19093671     0.10400
H919        H  0.83210024  0.12650807  0.29679280     0.08400
Br920      Br  0.87822396  0.06526984  0.31703703    -0.02200
C921        C  0.61372180  0.10135023  0.28242334    -0.08900
C922        C  0.59537762  0.09380468  0.24927828     0.07300
C923        C  0.60474858  0.11313101  0.21643814    -0.02600
C924        C  0.63171904  0.14025169  0.21733939    -0.07100
C925        C  0.65019709  0.14813725  0.25058421     0.06400
C926        C  0.64099417  0.12816223  0.28339472    -0.02100
Br927      Br  0.66289286  0.13725143  0.33102650    -0.01800
H928        H  0.60651698  0.08646948  0.30776350     0.10400
H929        H  0.63862877  0.15486481  0.19176053     0.08400
Br930      Br  0.58194831  0.10255375  0.16967172    -0.02200
C931        C  0.62524487  0.35559674  0.03134118    -0.08900
C932        C  0.64850916  0.35099166  0.99905524     0.07300
C933        C  0.64320423  0.37366085  0.46773058    -0.02600
C934        C  0.61602249  0.40065839  0.46977707    -0.07100
C935        C  0.59341267  0.40532053  0.00226450     0.06400
C936        C  0.59792610  0.38240294  0.03308540    -0.02100
Br937      Br  0.56784259  0.38732707  0.07836253    -0.01800
H938        H  0.62856666  0.33861946  0.05565974     0.10400
H939        H  0.61218332  0.41788897  0.44573308     0.08400
Br940      Br  0.67028064  0.36823857  0.42049824    -0.02200
C941        C  0.86544156  0.36152757  0.03660944    -0.08900
C942        C  0.84873887  0.35466222  0.00207343     0.07300
C943        C  0.85939758  0.37584265  0.47050595    -0.02600
C944        C  0.88633054  0.40274511  0.47398343    -0.07100
C945        C  0.90305813  0.40904257  0.00835025     0.06400
C946        C  0.89230451  0.38851302  0.03991466    -0.02100
Br947      Br  0.91369754  0.39663986  0.08787099    -0.01800
H948        H  0.85749144  0.34593042  0.06125515     0.10400
H949        H  0.89484566  0.41840921  0.44955252     0.08400
Br950      Br  0.84049419  0.36799616  0.42126059    -0.02200
C951        C  0.88002612  0.09415209  0.47859800    -0.08900
C952        C  0.90506903  0.09707370  0.00734748     0.07300
C953        C  0.90159519  0.12599891  0.03392913    -0.02600
C954        C  0.87447309  0.15248040  0.03030294    -0.07100
C955        C  0.84957952  0.15029263  0.00097219     0.06400
C956        C  0.85213059  0.11996735  0.47540262    -0.02100
Br957      Br  0.81910194  0.11114763  0.43541165    -0.01800
H958        H  0.88222533  0.07143032  0.45849619     0.10400
H959        H  0.87262351  0.17462774  0.05106829     0.08400
Br960      Br  0.93230069  0.12953244  0.07646548    -0.02200
C961        C  0.59991051  0.11753350  0.03260150    -0.08900
C962        C  0.59550140  0.09590927  0.00009157     0.07300
C963        C  0.61854367  0.10146022  0.46811681    -0.02600
C964        C  0.64551191  0.12858966  0.46898618    -0.07100
C965        C  0.65002729  0.15063848  0.00147260     0.06400
C966        C  0.62691831  0.14456863  0.03373733    -0.02100
Br967      Br  0.63163448  0.17028348  0.08110414    -0.01800
H968        H  0.58242315  0.11300008  0.05742578     0.10400
H969        H  0.66274552  0.13268289  0.44390407     0.08400
Br970      Br  0.61363473  0.07300249  0.42255068    -0.02200
N971        N  0.55569279  0.00097820  0.50075855    -0.36300
N972        N  0.00042089  0.05831917  0.50590840    -0.56900
N973        N  0.94414599  0.00264380  0.50926618    -0.36300
N974        N  0.99902073  0.44545563  0.50766203    -0.56900
C975        C  0.57670893  0.03081100  0.50689706     0.27300
C976        C  0.57593323  0.47116479  0.50820751     0.27300
C977        C  0.92405268  0.03292035  0.51790855     0.27300
C978        C  0.92325447  0.47333682  0.51821197     0.27300
C979        C  0.53005434  0.07872687  0.49655265     0.35900
C980        C  0.97089875  0.07955528  0.50060385     0.35900
C981        C  0.52817930  0.42369145  0.49932886     0.35900
C982        C  0.96906246  0.42464728  0.50246128     0.35900
C983        C  0.61086486  0.01983112  0.51799728    -0.21600
C984        C  0.61036850  0.48214996  0.51883827    -0.21600
C985        C  0.89003433  0.02275519  0.53283681    -0.21600
C986        C  0.88948460  0.48506304  0.53288877    -0.21600
C987        C  0.51939101  0.11325713  0.48569420    -0.22700
C988        C  0.98184333  0.11372242  0.48805668    -0.22700
C989        C  0.51675155  0.38875087  0.48933838    -0.22700
C990        C  0.97921881  0.38936616  0.49128513    -0.22700
C991        C  0.56657773  0.06746961  0.50043326    -0.18000
C992        C  0.56491507  0.43431669  0.50321855    -0.18000
C993        C  0.93276369  0.43649100  0.51004971    -0.18000
C994        C  0.93435964  0.06914741  0.50915475    -0.18000
H995        H  0.63389702  0.03714305  0.52441754     0.14900
H996        H  0.63293097  0.46479875  0.52605454     0.14900
H997        H  0.86759349  0.04062441  0.54178885     0.14900
H998        H  0.86656182  0.46821384  0.54189711     0.14900
H999        H  0.53685711  0.13580065  0.47720344     0.13200
H1000       H  0.96462009  0.13673335  0.48175537     0.13200
H1001       H  0.53369404  0.36522007  0.48177233     0.13200
H1002       H  0.96146528  0.36637179  0.48558219     0.13200
H1003       H  0.53064164  0.00080707  0.48799097     0.26400
H1004       H  0.96844738  0.00189786  0.49315481     0.26400
N1005       N  0.94473184  0.49910498  0.74654963    -0.36300
N1006       N  0.50012453  0.44270972  0.74735294    -0.56900
N1007       N  0.55593163  0.49897251  0.75147880    -0.36300
N1008       N  0.50052409  0.05532766  0.74795206    -0.56900
C1009       C  0.92497945  0.46922248  0.73714722     0.27300
C1010       C  0.92510374  0.02884802  0.73767522     0.27300
C1011       C  0.57650482  0.46886805  0.74330219     0.27300
C1012       C  0.57684655  0.02849649  0.74319529     0.27300
C1013       C  0.97005136  0.42186719  0.75316680     0.35900
C1014       C  0.52891222  0.42191990  0.75621928     0.35900
C1015       C  0.97062782  0.07678411  0.75321387     0.35900
C1016       C  0.52967250  0.07668738  0.75504623     0.35900
C1017       C  0.89234197  0.48006670  0.72224252    -0.21600
C1018       C  0.89244087  0.01777037  0.72251992    -0.21600
C1019       C  0.61092047  0.47937686  0.72978176    -0.21600
C1020       C  0.61118189  0.01706126  0.72986841    -0.21600
C1021       C  0.97971892  0.38755580  0.76551267    -0.22700
C1022       C  0.51708820  0.38767996  0.76774420    -0.22700
C1023       C  0.98081548  0.11204323  0.76357958    -0.22700
C1024       C  0.51831803  0.11200266  0.76464249    -0.22700
C1025       C  0.93435192  0.43269848  0.74487074    -0.18000
C1026       C  0.93464962  0.06559330  0.74575112    -0.18000
C1027       C  0.56640958  0.06542099  0.74955573    -0.18000
C1028       C  0.56578296  0.43234864  0.75030089    -0.18000
H1029       H  0.87043952  0.46265106  0.71282335     0.14900
H1030       H  0.87063342  0.03507063  0.71330137     0.14900
H1031       H  0.63363921  0.46173527  0.72115556     0.14900
H1032       H  0.63412469  0.03409750  0.72133124     0.14900
H1033       H  0.96178669  0.36472523  0.77181581     0.13200
H1034       H  0.53372181  0.36487998  0.77594191     0.13200
H1035       H  0.96314938  0.13549988  0.76901642     0.13200
H1036       H  0.53530901  0.13541487  0.77100836     0.13200
H1037       H  0.96782803  0.49927598  0.76265944     0.26400
H1038       H  0.53074722  0.49938826  0.76608649     0.26400
Zn1039     Zn  0.79308861  0.25267130  0.52981189     1.49700
Zn1040     Zn  0.70580455  0.25232644  0.53175744     1.49400
Zn1041     Zn  0.75123280  0.29522541  0.96732284     1.49100
Zn1042     Zn  0.75081650  0.20719415  0.96703004     1.49500
O1043       O  0.75011737  0.25184123  0.49886929    -1.83800
O1044       O  0.77884987  0.25176551  0.58472054    -0.74500
O1045       O  0.67437859  0.29627691  0.52194975    -0.74300
O1046       O  0.79479626  0.32764120  0.97765334    -0.73800
O1047       O  0.71808741  0.25263833  0.58685106    -0.74500
O1048       O  0.82353346  0.29789262  0.52157210    -0.74100
O1049       O  0.70584544  0.32558256  0.97724963    -0.74700
O1050       O  0.75180591  0.21975827  0.91169518    -0.74100
O1051       O  0.67528020  0.20742167  0.52258436    -0.74800
O1052       O  0.75263985  0.28075395  0.91211974    -0.74200
O1053       O  0.70605537  0.17607111  0.97756838    -0.74700
O1054       O  0.79470051  0.17580367  0.97730666    -0.74600
O1055       O  0.82438212  0.20826272  0.51962756    -0.74400
C1056       C  0.74841741  0.25181431  0.60322442     0.77400
C1057       C  0.67771489  0.32277166  0.49922690     0.77900
C1058       C  0.82095565  0.32518011  0.50005230     0.76900
C1059       C  0.75227332  0.25004870  0.89442070     0.77200
C1060       C  0.67862939  0.17952960  0.50065779     0.78400
C1061       C  0.82142882  0.17962734  0.49890453     0.77400
Zn1062     Zn  0.75038317  0.20550215  0.77967266     1.49700
Zn1063     Zn  0.70622140  0.24913155  0.71911710     1.49400
Zn1064     Zn  0.75120155  0.29327512  0.78100971     1.49100
Zn1065     Zn  0.79362995  0.24870514  0.71444926     1.49500
O1066       O  0.75037756  0.24917270  0.74860842    -1.83800
O1067       O  0.70592994  0.17433819  0.77097313    -0.74500
O1068       O  0.67568385  0.29353930  0.73191132    -0.74300
O1069       O  0.75219157  0.28005597  0.83592391    -0.73800
O1070       O  0.67528967  0.20422598  0.72849447    -0.74500
O1071       O  0.75095091  0.21909814  0.83514111    -0.74100
O1072       O  0.70687189  0.32488996  0.77386164    -0.74700
O1073       O  0.82512015  0.29312660  0.72286981    -0.74100
O1074       O  0.71842293  0.25070699  0.66344316    -0.74800
O1075       O  0.79554236  0.32424355  0.76886944    -0.74200
O1076       O  0.77919985  0.24945842  0.66033829    -0.74700
O1077       O  0.82461649  0.20389125  0.72182258    -0.74600
O1078       O  0.79463908  0.17416134  0.76717024    -0.74400
C1079       C  0.67860317  0.17709610  0.75012016     0.77400
C1080       C  0.67922033  0.32151371  0.75346997     0.77900
C1081       C  0.75189624  0.24968613  0.85300892     0.76900
C1082       C  0.82232595  0.32089865  0.74502751     0.77200
C1083       C  0.74863162  0.25064109  0.64447482     0.78400
C1084       C  0.82166744  0.17672373  0.74364468     0.77400
C1085       C  0.62093849  0.40623778  0.77866400    -0.08900
C1086       C  0.59466617  0.40380539  0.75105543     0.07300
C1087       C  0.59672609  0.37490944  0.72425494    -0.02600
C1088       C  0.62410873  0.34850533  0.72608717    -0.07100
C1089       C  0.65061531  0.35053308  0.75379127     0.06400
C1090       C  0.64903136  0.38036419  0.78005868    -0.02100
Br1091     Br  0.68383769  0.38847941  0.81845430    -0.01800
H1092       H  0.61971184  0.42871798  0.79910163     0.10400
H1093       H  0.62489753  0.32655746  0.70507205     0.08400
Br1094     Br  0.56377932  0.37097965  0.68360602    -0.02200
C1095       C  0.85689333  0.37047904  0.77677449    -0.08900
C1096       C  0.85090229  0.34971410  0.74375635     0.07300
C1097       C  0.87229833  0.35717764  0.71064907    -0.02600
C1098       C  0.89930275  0.38431326  0.71149526    -0.07100
C1099       C  0.90525786  0.40450916  0.74465605     0.06400
C1100       C  0.88377008  0.39761335  0.77739453    -0.02100
Br1101     Br  0.89073351  0.42431746  0.82368611    -0.01800
H1102       H  0.84092563  0.36530617  0.80246972     0.10400
H1103       H  0.91559955  0.38991853  0.68611275     0.08400
Br1104     Br  0.86499627  0.33310769  0.66286333    -0.02200
C1105       C  0.90402167  0.11682764  0.71417862    -0.08900
C1106       C  0.90555570  0.09382067  0.74516197     0.07300
C1107       C  0.87886691  0.09707981  0.77459293    -0.02600
C1108       C  0.85190207  0.12406555  0.77336068    -0.07100
C1109       C  0.85040383  0.14783133  0.74265140     0.06400
C1110       C  0.87654238  0.14332453  0.71232567    -0.02100
Br1111     Br  0.87547755  0.17025847  0.66640002    -0.01800
H1112       H  0.92399403  0.11364348  0.69097732     0.10400
H1113       H  0.83211701  0.12649113  0.79679080     0.08400
Br1114     Br  0.87824183  0.06525669  0.81704149    -0.02200
C1115       C  0.61374098  0.10133751  0.78243373    -0.08900
C1116       C  0.59541656  0.09377035  0.74928095     0.07300
C1117       C  0.60480310  0.11307987  0.71643389    -0.02600
C1118       C  0.63177247  0.14020181  0.71733407    -0.07100
C1119       C  0.65023122  0.14810773  0.75058605     0.06400
C1120       C  0.64100945  0.12815372  0.78340510    -0.02100
Br1121     Br  0.66287141  0.13728590  0.83104812    -0.01800
H1122       H  0.60652109  0.08647326  0.80778050     0.10400
H1123       H  0.63869470  0.15480194  0.69175016     0.08400
Br1124     Br  0.58202006  0.10248366  0.66966209    -0.02200
C1125       C  0.62524541  0.35565292  0.53133734    -0.08900
C1126       C  0.64849777  0.35102490  0.49904575     0.07300
C1127       C  0.64322716  0.37365053  0.96775537    -0.02600
C1128       C  0.61604012  0.40064229  0.96980912    -0.07100
C1129       C  0.59340790  0.40536075  0.50223848     0.06400
C1130       C  0.59792834  0.38246112  0.53307255    -0.02100
Br1131     Br  0.56785200  0.38740825  0.57835276    -0.01800
H1132       H  0.62857391  0.33869069  0.55566586     0.10400
H1133       H  0.61220951  0.41789015  0.94577652     0.08400
Br1134     Br  0.67033307  0.36827525  0.92053600    -0.02200
C1135       C  0.86542607  0.36155146  0.53658609    -0.08900
C1136       C  0.84872559  0.35468299  0.50204962     0.07300
C1137       C  0.85940428  0.37582909  0.97053301    -0.02600
C1138       C  0.88633110  0.40273695  0.97401307    -0.07100
C1139       C  0.90305484  0.40905383  0.50832190     0.06400
C1140       C  0.89229320  0.38853237  0.53988932    -0.02100
Br1141     Br  0.91367831  0.39666551  0.58784867    -0.01800
H1142       H  0.85747032  0.34596060  0.56123445     0.10400
H1143       H  0.89484206  0.41840541  0.94958384     0.08400
Br1144     Br  0.84050369  0.36798277  0.92128641    -0.02200
C1145       C  0.88005567  0.09413650  0.97856939    -0.08900
C1146       C  0.90503093  0.09708324  0.50738432     0.07300
C1147       C  0.90154823  0.12600100  0.53397353    -0.02600
C1148       C  0.87442959  0.15248569  0.53034321    -0.07100
C1149       C  0.84954833  0.15030686  0.50100055     0.06400
C1150       C  0.85215690  0.11994938  0.97537824    -0.02100
Br1151     Br  0.81911387  0.11111736  0.93540249    -0.01800
H1152       H  0.88224841  0.07140972  0.95847314     0.10400
H1153       H  0.87257339  0.17462887  0.55111296     0.08400
Br1154     Br  0.93223967  0.12951996  0.57652180    -0.02200
C1155       C  0.59988834  0.11756522  0.53260848    -0.08900
C1156       C  0.59546446  0.09596001  0.50008776     0.07300
C1157       C  0.61859963  0.10138600  0.96812985    -0.02600
C1158       C  0.64556508  0.12851897  0.96899401    -0.07100
C1159       C  0.64999200  0.15068636  0.50147705     0.06400
C1160       C  0.62689584  0.14460084  0.53374719    -0.02100
Br1161     Br  0.63163076  0.17029585  0.58112218    -0.01800
H1162       H  0.58241308  0.11301658  0.55743817     0.10400
H1163       H  0.66281102  0.13259602  0.94391748     0.08400
Br1164     Br  0.61372247  0.07288886  0.92258401    -0.02200
N1165       N  0.55570952  0.50093773  0.00078379    -0.36300
N1166       N  0.00044964  0.55828890  0.00589640    -0.56900
N1167       N  0.94416445  0.50262589  0.00926412    -0.36300
N1168       N  0.99902894  0.94542726  0.00769471    -0.56900
C1169       C  0.57672858  0.53076787  0.00692406     0.27300
C1170       C  0.57594151  0.97112318  0.00824810     0.27300
C1171       C  0.92407557  0.53290907  0.01789089     0.27300
C1172       C  0.92326700  0.97332604  0.01822155     0.27300
C1173       C  0.53008949  0.57868690  0.99653973     0.35900
C1174       C  0.97093355  0.57952787  0.00057399     0.35900
C1175       C  0.52818392  0.92365789  0.99936214     0.35900
C1176       C  0.96906745  0.92462466  0.00249133     0.35900
C1177       C  0.61087657  0.51978518  0.01804461    -0.21600
C1178       C  0.61037317  0.98210447  0.01889363    -0.21600
C1179       C  0.89005395  0.52275520  0.03282015    -0.21600
C1180       C  0.88949776  0.98506331  0.03288948    -0.21600
C1181       C  0.51943627  0.61321386  0.98566135    -0.22700
C1182       C  0.98188832  0.61368713  0.98801331    -0.22700
C1183       C  0.51675072  0.88872000  0.98936896    -0.22700
C1184       C  0.97921793  0.88934196  0.99131460    -0.22700
C1185       C  0.56660879  0.56742502  0.00043913    -0.18000
C1186       C  0.56492080  0.93427722  0.00325423    -0.18000
C1187       C  0.93277057  0.93647591  0.01007508    -0.18000
C1188       C  0.93439108  0.56913111  0.00912413    -0.18000
H1189       H  0.63390882  0.53709473  0.02447067     0.14900
H1190       H  0.63292901  0.96475076  0.02612340     0.14900
H1191       H  0.86761540  0.54063130  0.04176237     0.14900
H1192       H  0.86657144  0.96822115  0.04190282     0.14900
H1193       H  0.53690924  0.63575038  0.97716539     0.13200
H1194       H  0.96467145  0.63669842  0.98169734     0.13200
H1195       H  0.53368945  0.86518677  0.98180198     0.13200
H1196       H  0.96146052  0.86635137  0.98560870     0.13200
H1197       H  0.53066559  0.50076729  0.98800169     0.26400
H1198       H  0.96846779  0.50186931  0.99315630     0.26400
N1199       N  0.94471025  0.99911092  0.24655489    -0.36300
N1200       N  0.50011321  0.94272763  0.24736744    -0.56900
N1201       N  0.55591054  0.99900146  0.25147511    -0.36300
N1202       N  0.50049212  0.55534513  0.24794082    -0.56900
C1203       C  0.92496027  0.96922185  0.23716885     0.27300
C1204       C  0.92507586  0.52884715  0.23767225     0.27300
C1205       C  0.57648852  0.96890119  0.24329371     0.27300
C1206       C  0.57681830  0.52852943  0.24318817     0.27300
C1207       C  0.97004527  0.92187972  0.25319191     0.35900
C1208       C  0.52890831  0.92194384  0.25622483     0.35900
C1209       C  0.97059134  0.57679593  0.25319823     0.35900
C1210       C  0.52963540  0.57671082  0.25503825     0.35900
C1211       C  0.89231776  0.98005514  0.22226677    -0.21600
C1212       C  0.89241144  0.51775851  0.22252820    -0.21600
C1213       C  0.61089952  0.97941701  0.22976604    -0.21600
C1214       C  0.61115363  0.51710140  0.22985420    -0.21600
C1215       C  0.97972376  0.88757080  0.26553572    -0.22700
C1216       C  0.51709438  0.88770211  0.26775447    -0.22700
C1217       C  0.98077096  0.61205757  0.26356370    -0.22700
C1218       C  0.51827317  0.61202410  0.26463244    -0.22700
C1219       C  0.93434098  0.93270237  0.24490317    -0.18000
C1220       C  0.93461595  0.56559647  0.24573495    -0.18000
C1221       C  0.56637480  0.56545147  0.24955070    -0.18000
C1222       C  0.56577587  0.93237961  0.25029461    -0.18000
H1223       H  0.87041521  0.96263300  0.21285987     0.14900
H1224       H  0.87059898  0.53505149  0.21330807     0.14900
H1225       H  0.63362025  0.96178012  0.22113447     0.14900
H1226       H  0.63409131  0.53414246  0.22131248     0.14900
H1227       H  0.96179803  0.86473660  0.27184435     0.13200
H1228       H  0.53373523  0.86490554  0.27594704     0.13200
H1229       H  0.96309963  0.63551077  0.26899781     0.13200
H1230       H  0.53525902  0.63543961  0.27100032     0.13200
H1231       H  0.96780939  0.99929156  0.26266019     0.26400
H1232       H  0.53072866  0.99941297  0.26608782     0.26400
Zn1233     Zn  0.79310324  0.75264306  0.02981463     1.49700
Zn1234     Zn  0.70581987  0.75229186  0.03174850     1.49400
Zn1235     Zn  0.75121362  0.79524407  0.46731637     1.49100
Zn1236     Zn  0.75079528  0.70721468  0.46704137     1.49500
O1237       O  0.75013563  0.75181568  0.99886634    -1.83800
O1238       O  0.77885766  0.75174213  0.08472280    -0.74500
O1239       O  0.67438833  0.79623539  0.02193926    -0.74300
O1240       O  0.79478144  0.82766042  0.47763231    -0.73800
O1241       O  0.71809530  0.75261636  0.08684346    -0.74500
O1242       O  0.82355213  0.79786443  0.02158375    -0.74100
O1243       O  0.70582812  0.82560439  0.47723980    -0.74700
O1244       O  0.75178741  0.71976469  0.41170128    -0.74100
O1245       O  0.67530661  0.70738006  0.02257481    -0.74800
O1246       O  0.75261174  0.78076020  0.41211813    -0.74200
O1247       O  0.70602778  0.67610492  0.47758213    -0.74700
O1248       O  0.79467155  0.67581859  0.47733231    -0.74600
O1249       O  0.82439606  0.70823479  0.01962383    -0.74400
C1250       C  0.74842249  0.75179753  0.10322215     0.77400
C1251       C  0.67772780  0.82273955  0.99922881     0.77900
C1252       C  0.82097153  0.82515722  0.00007148     0.76900
C1253       C  0.75224825  0.75005297  0.39442291     0.77200
C1254       C  0.67865878  0.67948881  0.00064763     0.78400
C1255       C  0.82145285  0.67960788  0.99888599     0.77400
Zn1256     Zn  0.75035826  0.70551298  0.27967000     1.49700
Zn1257     Zn  0.70620608  0.74915129  0.21911028     1.49400
Zn1258     Zn  0.75117956  0.79328488  0.28101622     1.49100
Zn1259     Zn  0.79361566  0.74871946  0.21445747     1.49500
O1260       O  0.75035809  0.74918632  0.24860925    -1.83800
O1261       O  0.70590119  0.67435889  0.27096701    -0.74500
O1262       O  0.67567971  0.79357257  0.23188806    -0.74300
O1263       O  0.75215694  0.78005854  0.33592738    -0.73800
O1264       O  0.67526114  0.70425514  0.22849491    -0.74500
O1265       O  0.75093038  0.71910053  0.33514204    -0.74100
O1266       O  0.70685780  0.82490804  0.27385801    -0.74700
O1267       O  0.82510643  0.79313830  0.22289216    -0.74100
O1268       O  0.71841773  0.75070500  0.16343657    -0.74800
O1269       O  0.79552829  0.82424912  0.26889699    -0.74200
O1270       O  0.77919501  0.74947041  0.16034366    -0.74700
O1271       O  0.82459556  0.70389999  0.22182487    -0.74600
O1272       O  0.79460483  0.67416303  0.26715904    -0.74400
C1273       C  0.67857259  0.67712265  0.25011785     0.77400
C1274       C  0.67921479  0.82154323  0.25345261     0.77900
C1275       C  0.75186874  0.74968829  0.35301117     0.76900
C1276       C  0.82231350  0.82090537  0.24505716     0.77200
C1277       C  0.74862962  0.75063970  0.14447369     0.78400
C1278       C  0.82163560  0.67672548  0.24363671     0.77400
C1279       C  0.62094622  0.90627910  0.27863983    -0.08900
C1280       C  0.59466543  0.90384166  0.25104026     0.07300
C1281       C  0.59672113  0.87494417  0.22424149    -0.02600
C1282       C  0.62410456  0.84854023  0.22607017    -0.07100
C1283       C  0.65061624  0.85056954  0.25376913     0.06400
C1284       C  0.64904032  0.88040625  0.28003054    -0.02100
Br1285     Br  0.68385999  0.88853235  0.31841162    -0.01800
H1286       H  0.61972439  0.92876194  0.29907448     0.10400
H1287       H  0.62488776  0.82658939  0.20505838     0.08400
Br1288     Br  0.56376431  0.87101047  0.18360200    -0.02200
C1289       C  0.85691208  0.87045188  0.27682424    -0.08900
C1290       C  0.85089266  0.84971702  0.24379334     0.07300
C1291       C  0.87226140  0.85720761  0.21067614    -0.02600
C1292       C  0.89926888  0.88433950  0.21152295    -0.07100
C1293       C  0.90525267  0.90450677  0.24469484     0.06400
C1294       C  0.88379136  0.89758449  0.27744496    -0.02100
Br1295     Br  0.89078997  0.92425529  0.32374926    -0.01800
H1296       H  0.84096333  0.86525789  0.30252647     0.10400
H1297       H  0.91554303  0.88996709  0.18613140     0.08400
Br1298     Br  0.86490924  0.83318481  0.16287669    -0.02200
C1299       C  0.90396539  0.61680840  0.21414765    -0.08900
C1300       C  0.90551635  0.59381729  0.24514225     0.07300
C1301       C  0.87883818  0.59708508  0.27458255    -0.02600
C1302       C  0.85187442  0.62407197  0.27335397    -0.07100
C1303       C  0.85036365  0.64782596  0.24263665     0.06400
C1304       C  0.87648220  0.64330154  0.21229586    -0.02100
Br1305     Br  0.87537385  0.67019872  0.16634974    -0.01800
H1306       H  0.92392552  0.61361320  0.19093670     0.10400
H1307       H  0.83210042  0.62650821  0.29679298     0.08400
Br1308     Br  0.87822417  0.56526992  0.31703709    -0.02200
C1309       C  0.61372179  0.60135026  0.28242334    -0.08900
C1310       C  0.59537761  0.59380472  0.24927828     0.07300
C1311       C  0.60474855  0.61313107  0.21643815    -0.02600
C1312       C  0.63171902  0.64025174  0.21733940    -0.07100
C1313       C  0.65019709  0.64813728  0.25058422     0.06400
C1314       C  0.64099416  0.62816226  0.28339472    -0.02100
Br1315     Br  0.66289284  0.63725148  0.33102651    -0.01800
H1316       H  0.60651697  0.58646951  0.30776351     0.10400
H1317       H  0.63862875  0.65486487  0.19176054     0.08400
Br1318     Br  0.58194829  0.60255383  0.16967173    -0.02200
C1319       C  0.62524484  0.85559676  0.03134117    -0.08900
C1320       C  0.64850919  0.85099167  0.99905527     0.07300
C1321       C  0.64320425  0.87366084  0.46773058    -0.02600
C1322       C  0.61602249  0.90065838  0.46977705    -0.07100
C1323       C  0.59341267  0.90532051  0.00226439     0.06400
C1324       C  0.59792604  0.88240294  0.03308531    -0.02100
Br1325     Br  0.56784235  0.88732707  0.07836233    -0.01800
H1326       H  0.62856660  0.83861951  0.05565976     0.10400
H1327       H  0.61218329  0.91788893  0.44573305     0.08400
Br1328     Br  0.67028060  0.86823843  0.42049822    -0.02200
C1329       C  0.86544153  0.86152764  0.03660951    -0.08900
C1330       C  0.84873885  0.85466229  0.00207349     0.07300
C1331       C  0.85939755  0.87584278  0.47050604    -0.02600
C1332       C  0.88633054  0.90274522  0.47398354    -0.07100
C1333       C  0.90305811  0.90904263  0.00835033     0.06400
C1334       C  0.89230448  0.88851308  0.03991474    -0.02100
Br1335     Br  0.91369752  0.89663992  0.08787106    -0.01800
H1336       H  0.85749140  0.84593048  0.06125521     0.10400
H1337       H  0.89484566  0.91840934  0.44955265     0.08400
Br1338     Br  0.84049410  0.86799647  0.42126071    -0.02200
C1339       C  0.88002615  0.59415217  0.47859786    -0.08900
C1340       C  0.90506908  0.59707371  0.00734731     0.07300
C1341       C  0.90159522  0.62599885  0.03392904    -0.02600
C1342       C  0.87447310  0.65248034  0.03030291    -0.07100
C1343       C  0.84957952  0.65029260  0.00097217     0.06400
C1344       C  0.85213060  0.61996742  0.47540256    -0.02100
Br1345     Br  0.81910190  0.61114772  0.43541163    -0.01800
H1346       H  0.88222537  0.57143045  0.45849600     0.10400
H1347       H  0.87262351  0.67462764  0.05106830     0.08400
Br1348     Br  0.93230066  0.62953225  0.07646545    -0.02200
C1349       C  0.59991048  0.61753354  0.03260150    -0.08900
C1350       C  0.59550137  0.59590930  0.00009157     0.07300
C1351       C  0.61854375  0.60146020  0.46811680    -0.02600
C1352       C  0.64551194  0.62858968  0.46898617    -0.07100
C1353       C  0.65002726  0.65063850  0.00147260     0.06400
C1354       C  0.62691829  0.64456866  0.03373733    -0.02100
Br1355     Br  0.63163445  0.67028354  0.08110413    -0.01800
H1356       H  0.58242310  0.61300012  0.05742576     0.10400
H1357       H  0.66274557  0.63268292  0.44390407     0.08400
Br1358     Br  0.61363492  0.57300248  0.42255065    -0.02200
N1359       N  0.55569281  0.50097820  0.50075854    -0.36300
N1360       N  0.00042089  0.55831913  0.50590835    -0.56900
N1361       N  0.94414596  0.50264377  0.50926593    -0.36300
N1362       N  0.99902073  0.94545564  0.50766205    -0.56900
C1363       C  0.57670895  0.53081099  0.50689706     0.27300
C1364       C  0.57593321  0.97116479  0.50820750     0.27300
C1365       C  0.92405265  0.53292031  0.51790829     0.27300
C1366       C  0.92325447  0.97333685  0.51821217     0.27300
C1367       C  0.53005436  0.57872685  0.49655262     0.35900
C1368       C  0.97089876  0.57955523  0.50060372     0.35900
C1369       C  0.52817929  0.92369143  0.49932887     0.35900
C1370       C  0.96906244  0.92464730  0.50246135     0.35900
C1371       C  0.61086488  0.51983111  0.51799729    -0.21600
C1372       C  0.61036849  0.98214996  0.51883826    -0.21600
C1373       C  0.89003430  0.52275516  0.53283657    -0.21600
C1374       C  0.88948459  0.98506307  0.53288896    -0.21600
C1375       C  0.51939104  0.61325712  0.48569421    -0.22700
C1376       C  0.98184335  0.61372238  0.48805656    -0.22700
C1377       C  0.51675152  0.88875084  0.48933838    -0.22700
C1378       C  0.97921876  0.88936617  0.49128516    -0.22700
C1379       C  0.56657777  0.56746959  0.50043322    -0.18000
C1380       C  0.56491506  0.93431667  0.50321856    -0.18000
C1381       C  0.93276369  0.93649103  0.51004984    -0.18000
C1382       C  0.93435964  0.56914739  0.50915456    -0.18000
H1383       H  0.63389704  0.53714303  0.52441755     0.14900
H1384       H  0.63293094  0.96479873  0.52605453     0.14900
H1385       H  0.86759348  0.54062438  0.54178864     0.14900
H1386       H  0.86656178  0.96821388  0.54189723     0.14900
H1387       H  0.53685716  0.63580065  0.47720353     0.13200
H1388       H  0.96462011  0.63673329  0.48175520     0.13200
H1389       H  0.53369401  0.86522005  0.48177233     0.13200
H1390       H  0.96146522  0.86637180  0.48558224     0.13200
H1391       H  0.53064167  0.50080706  0.48799093     0.26400
H1392       H  0.96844735  0.50189782  0.49315456     0.26400
N1393       N  0.94473184  0.99910497  0.74654956    -0.36300
N1394       N  0.50012453  0.94270976  0.74735306    -0.56900
N1395       N  0.55593162  0.99897251  0.75147878    -0.36300
N1396       N  0.50052409  0.55532759  0.74795207    -0.56900
C1397       C  0.92497943  0.96922247  0.73714717     0.27300
C1398       C  0.92510371  0.52884803  0.73767533     0.27300
C1399       C  0.57650480  0.96886804  0.74330220     0.27300
C1400       C  0.57684661  0.52849649  0.74319534     0.27300
C1401       C  0.97005135  0.92186717  0.75316667     0.35900
C1402       C  0.52891221  0.92191990  0.75621933     0.35900
C1403       C  0.97062782  0.57678408  0.75321391     0.35900
C1404       C  0.52967251  0.57668735  0.75504616     0.35900
C1405       C  0.89234196  0.98006670  0.72224246    -0.21600
C1406       C  0.89244084  0.51777037  0.72252005    -0.21600
C1407       C  0.61092043  0.97937687  0.72978172    -0.21600
C1408       C  0.61118197  0.51706125  0.72986852    -0.21600
C1409       C  0.97971891  0.88755581  0.76551257    -0.22700
C1410       C  0.51708817  0.88767996  0.76774420    -0.22700
C1411       C  0.98081551  0.61204320  0.76357958    -0.22700
C1412       C  0.51831803  0.61200263  0.76464236    -0.22700
C1413       C  0.93435190  0.93269846  0.74487064    -0.18000
C1414       C  0.93464960  0.56559331  0.74575120    -0.18000
C1415       C  0.56640961  0.56542098  0.74955569    -0.18000
C1416       C  0.56578295  0.93234861  0.75030088    -0.18000
H1417       H  0.87043951  0.96265106  0.71282328     0.14900
H1418       H  0.87063336  0.53507062  0.71330155     0.14900
H1419       H  0.63363918  0.96173529  0.72115551     0.14900
H1420       H  0.63412479  0.53409750  0.72133140     0.14900
H1421       H  0.96178670  0.86472525  0.77181580     0.13200
H1422       H  0.53372176  0.86487994  0.77594183     0.13200
H1423       H  0.96314942  0.63549986  0.76901640     0.13200
H1424       H  0.53530900  0.63541487  0.77100814     0.13200
H1425       H  0.96782802  0.99927596  0.76265938     0.26400
H1426       H  0.53074722  0.99938827  0.76608653     0.26400
Zn1427     Zn  0.79308870  0.75267128  0.52981190     1.49700
Zn1428     Zn  0.70580463  0.75232647  0.53175744     1.49400
Zn1429     Zn  0.75123281  0.79522543  0.96732289     1.49100
Zn1430     Zn  0.75081650  0.70719415  0.96703004     1.49500
O1431       O  0.75011746  0.75184121  0.49886930    -1.83800
O1432       O  0.77884992  0.75176539  0.58472053    -0.74500
O1433       O  0.67437866  0.79627693  0.52194979    -0.74300
O1434       O  0.79479622  0.82764128  0.97765345    -0.73800
O1435       O  0.71808746  0.75263838  0.58685107    -0.74500
O1436       O  0.82353351  0.79789265  0.52157213    -0.74100
O1437       O  0.70584547  0.82558257  0.97724968    -0.74700
O1438       O  0.75180589  0.71975834  0.91169518    -0.74100
O1439       O  0.67528022  0.70742173  0.52258435    -0.74800
O1440       O  0.75263986  0.78075402  0.91211976    -0.74200
O1441       O  0.70605535  0.67607111  0.97756838    -0.74700
O1442       O  0.79470051  0.67580365  0.97730666    -0.74600
O1443       O  0.82438221  0.70826275  0.51962758    -0.74400
C1444       C  0.74841746  0.75181429  0.60322443     0.77400
C1445       C  0.67771495  0.82277166  0.49922691     0.77900
C1446       C  0.82095567  0.82518014  0.50005233     0.76900
C1447       C  0.75227331  0.75004877  0.89442071     0.77200
C1448       C  0.67862939  0.67952967  0.50065777     0.78400
C1449       C  0.82142888  0.67962739  0.49890452     0.77400
Zn1450     Zn  0.75038317  0.70550223  0.77967268     1.49700
Zn1451     Zn  0.70622145  0.74913159  0.71911711     1.49400
Zn1452     Zn  0.75120155  0.79327514  0.78100972     1.49100
Zn1453     Zn  0.79363001  0.74870517  0.71444925     1.49500
O1454       O  0.75037761  0.74917275  0.74860840    -1.83800
O1455       O  0.70592990  0.67433831  0.77097325    -0.74500
O1456       O  0.67568386  0.79353928  0.73191133    -0.74300
O1457       O  0.75219154  0.78005604  0.83592392    -0.73800
O1458       O  0.67528971  0.70422602  0.72849448    -0.74500
O1459       O  0.75095092  0.71909822  0.83514112    -0.74100
O1460       O  0.70687189  0.82488996  0.77386164    -0.74700
O1461       O  0.82512016  0.79312663  0.72286979    -0.74100
O1462       O  0.71842300  0.75070703  0.66344317    -0.74800
O1463       O  0.79554236  0.82424354  0.76886946    -0.74200
O1464       O  0.77919992  0.74945844  0.66033828    -0.74700
O1465       O  0.82461657  0.70389131  0.72182260    -0.74600
O1466       O  0.79463908  0.67416140  0.76717021    -0.74400
C1467       C  0.67860316  0.67709618  0.75012024     0.77400
C1468       C  0.67922032  0.82151368  0.75346999     0.77900
C1469       C  0.75189623  0.74968620  0.85300893     0.76900
C1470       C  0.82232593  0.82089867  0.74502749     0.77200
C1471       C  0.74863168  0.75064111  0.64447482     0.78400
C1472       C  0.82166747  0.67672378  0.74364468     0.77400
C1473       C  0.62093847  0.90623774  0.77866397    -0.08900
C1474       C  0.59466616  0.90380535  0.75105540     0.07300
C1475       C  0.59672604  0.87490933  0.72425497    -0.02600
C1476       C  0.62410867  0.84850522  0.72608723    -0.07100
C1477       C  0.65061527  0.85053300  0.75379130     0.06400
C1478       C  0.64903132  0.88036414  0.78005869    -0.02100
Br1479     Br  0.68383767  0.88847945  0.81845427    -0.01800
H1480       H  0.61971184  0.92871798  0.79910156     0.10400
H1481       H  0.62489746  0.82655733  0.70507212     0.08400
Br1482     Br  0.56377929  0.87097948  0.68360604    -0.02200
C1483       C  0.85689334  0.87047902  0.77677445    -0.08900
C1484       C  0.85090221  0.84971415  0.74375629     0.07300
C1485       C  0.87229814  0.85717775  0.71064896    -0.02600
C1486       C  0.89930257  0.88431335  0.71149512    -0.07100
C1487       C  0.90525782  0.90450914  0.74465596     0.06400
C1488       C  0.88377014  0.89761327  0.77739448    -0.02100
Br1489     Br  0.89073376  0.92431726  0.82368610    -0.01800
H1490       H  0.84092570  0.86530612  0.80246971     0.10400
H1491       H  0.91559931  0.88991869  0.68611257     0.08400
Br1492     Br  0.86499597  0.83310783  0.66286320    -0.02200
C1493       C  0.90402167  0.61682765  0.71417867    -0.08900
C1494       C  0.90555570  0.59382069  0.74516203     0.07300
C1495       C  0.87886690  0.59707987  0.77459299    -0.02600
C1496       C  0.85190205  0.62406560  0.77336072    -0.07100
C1497       C  0.85040383  0.64783137  0.74265142     0.06400
C1498       C  0.87654239  0.64332455  0.71232569    -0.02100
Br1499     Br  0.87547757  0.67025849  0.66640005    -0.01800
H1500       H  0.92399403  0.61364348  0.69097738     0.10400
H1501       H  0.83211699  0.62649119  0.79679083     0.08400
Br1502     Br  0.87824179  0.56525675  0.81704156    -0.02200
C1503       C  0.61374095  0.60133753  0.78243373    -0.08900
C1504       C  0.59541659  0.59377036  0.74928093     0.07300
C1505       C  0.60480318  0.61307989  0.71643388    -0.02600
C1506       C  0.63177250  0.64020187  0.71733411    -0.07100
C1507       C  0.65023121  0.64810781  0.75058612     0.06400
C1508       C  0.64100942  0.62815374  0.78340514    -0.02100
Br1509     Br  0.66287142  0.63728576  0.83104815    -0.01800
H1510       H  0.60652104  0.58647328  0.80778049     0.10400
H1511       H  0.63869473  0.65480202  0.69175021     0.08400
Br1512     Br  0.58202025  0.60248369  0.66966202    -0.02200
C1513       C  0.62524546  0.85565294  0.53133735    -0.08900
C1514       C  0.64849783  0.85102492  0.49904577     0.07300
C1515       C  0.64322723  0.87365051  0.96775537    -0.02600
C1516       C  0.61604018  0.90064226  0.96980904    -0.07100
C1517       C  0.59340790  0.90536073  0.50223848     0.06400
C1518       C  0.59792835  0.88246110  0.53307255    -0.02100
Br1519     Br  0.56785197  0.88740811  0.57835274    -0.01800
H1520       H  0.62857398  0.83869071  0.55566587     0.10400
H1521       H  0.61220962  0.91789010  0.94577642     0.08400
Br1522     Br  0.67033321  0.86827515  0.92053604    -0.02200
C1523       C  0.86542607  0.86155148  0.53658615    -0.08900
C1524       C  0.84872558  0.85468306  0.50204968     0.07300
C1525       C  0.85940425  0.87582917  0.97053308    -0.02600
C1526       C  0.88633107  0.90273703  0.97401316    -0.07100
C1527       C  0.90305483  0.90905389  0.50832202     0.06400
C1528       C  0.89229318  0.88853240  0.53988942    -0.02100
Br1529     Br  0.91367829  0.89666556  0.58784875    -0.01800
H1530       H  0.85747034  0.84596058  0.56123450     0.10400
H1531       H  0.89484204  0.91840550  0.94958394     0.08400
Br1532     Br  0.84050369  0.86798286  0.92128647    -0.02200
C1533       C  0.88005573  0.59413656  0.97856921    -0.08900
C1534       C  0.90503095  0.59708325  0.50738420     0.07300
C1535       C  0.90154823  0.62600093  0.53397349    -0.02600
C1536       C  0.87442958  0.65248563  0.53034324    -0.07100
C1537       C  0.84954835  0.65030688  0.50100054     0.06400
C1538       C  0.85215691  0.61994940  0.97537815    -0.02100
Br1539     Br  0.81911383  0.61111741  0.93540244    -0.01800
H1540       H  0.88224848  0.57140982  0.95847291     0.10400
H1541       H  0.87257336  0.67462876  0.55111306     0.08400
Br1542     Br  0.93223965  0.62951978  0.57652179    -0.02200
C1543       C  0.59988838  0.61756520  0.53260846    -0.08900
C1544       C  0.59546451  0.59595998  0.50008773     0.07300
C1545       C  0.61859961  0.60138604  0.96812984    -0.02600
C1546       C  0.64556505  0.62851900  0.96899401    -0.07100
C1547       C  0.64999199  0.65068642  0.50147701     0.06400
C1548       C  0.62689582  0.64460088  0.53374715    -0.02100
Br1549     Br  0.63163071  0.67029595  0.58112208    -0.01800
H1550       H  0.58241313  0.61301653  0.55743816     0.10400
H1551       H  0.66281099  0.63259606  0.94391748     0.08400
Br1552     Br  0.61372245  0.57288893  0.92258399    -0.02200
loop_ 
_geom_bond_atom_site_label_1 
_geom_bond_atom_site_label_2 
_geom_bond_distance 
_geom_bond_site_symmetry_2 
_ccdc_geom_bond_type 
N1           H33   1.039   1_554  S
N1            C5   1.352       .  A
N1          C394   1.353   1_545  A
N2           C10   1.351       .  A
N2          C785   1.350   1_554  A
N3           H34   1.038   1_554  S
N3            C7   1.351       .  A
N3          C396   1.351   1_545  A
N4           C12   1.351       .  A
N4          C787   1.350   1_554  A
C5           C13   1.387       .  A
C5           C21   1.414       .  A
C6          N389   1.353       .  A
C6           C22   1.414       .  A
C6           C14   1.387       .  A
C7           C15   1.387       .  A
C7           C24   1.412       .  A
C8          N391   1.351       .  A
C8           C23   1.411       .  A
C8           C16   1.386       .  A
C9          N778   1.350   1_556  A
C9           C21   1.411   1_556  A
C9           C17   1.386       .  A
C10          C24   1.414       .  A
C10          C18   1.387   1_554  A
C11         N780   1.350   1_456  A
C11          C19   1.386       .  A
C11          C22   1.411   1_556  A
C12          C20   1.386   1_554  A
C12          C23   1.411       .  A
C13         C402   1.376   1_545  A
C13          H25   1.082       .  S
C14         C401   1.376       .  A
C14          H26   1.082       .  S
C15         C404   1.376   1_545  A
C15          H27   1.082       .  S
C16         C403   1.376       .  A
C16          H28   1.082       .  S
C17         C794   1.374   1_455  A
C17          H29   1.082       .  S
C18         C793   1.374       .  A
C18          H30   1.082       .  S
C19         C796   1.373   1_455  A
C19          H31   1.082       .  S
C20         C795   1.373       .  A
C20          H32   1.082       .  S
C21         C186   1.483       .  S
C22         C159   1.484       .  S
C23         C169   1.481       .  S
C24         C176   1.484       .  S
N35          H67   1.039       .  S
N35          C39   1.352       .  A
N35         C428   1.351       .  A
N36          C44   1.349       .  A
N36         C819   1.350   1_455  A
N37          H68   1.040       .  S
N37          C41   1.352       .  A
N37         C430   1.352       .  A
N38          C46   1.350       .  A
N38         C821   1.350   1_455  A
C39          C47   1.386       .  A
C39          C55   1.411       .  A
C40         N423   1.351   1_545  A
C40          C56   1.413       .  A
C40          C48   1.387       .  A
C41          C49   1.387       .  A
C41          C58   1.414       .  A
C42         N425   1.352   1_545  A
C42          C57   1.412       .  A
C42          C50   1.386       .  A
C43         N812   1.350       .  A
C43          C55   1.409       .  A
C43          C51   1.385       .  A
C44          C58   1.411       .  A
C44          C52   1.387       .  A
C45         N814   1.350       .  A
C45          C53   1.387       .  A
C45          C56   1.412       .  A
C46          C54   1.386       .  A
C46          C57   1.411       .  A
C47         C436   1.376       .  A
C47          H59   1.082       .  S
C48         C435   1.376   1_545  A
C48          H60   1.082       .  S
C49         C438   1.375       .  A
C49          H61   1.082       .  S
C50         C437   1.375   1_545  A
C50          H62   1.082       .  S
C51         C828   1.373       .  A
C51          H63   1.082       .  S
C52         C827   1.373   1_455  A
C52          H64   1.082       .  S
C53         C830   1.375       .  A
C53          H65   1.082       .  S
C54         C829   1.375   1_455  A
C54          H66   1.082       .  S
C55         C129   1.481       .  S
C56         C136   1.483       .  S
C57         C146   1.483       .  S
C58         C116   1.485       .  S
Zn69         O73   1.953   1_554  S
Zn69         O74   1.998       .  S
Zn69         O78   2.012       .  S
Zn69         O85   2.003       .  S
Zn70         O73   1.960   1_554  S
Zn70         O75   2.018       .  S
Zn70         O77   2.023       .  S
Zn70         O81   2.012       .  S
Zn71        O267   1.958       .  S
Zn71         O76   2.027       .  S
Zn71         O79   2.012       .  S
Zn71         O82   2.017       .  S
Zn72        O267   1.963       .  S
Zn72         O80   2.024       .  S
Zn72         O83   2.021       .  S
Zn72         O84   2.022       .  S
O73        Zn265   1.958       .  S
O73        Zn266   1.963       .  S
O74          C86   1.271       .  A
O75          C87   1.274   1_554  A
O76         C282   1.274       .  A
O77          C86   1.274       .  A
O78          C88   1.273       .  A
O79         C281   1.272       .  A
O80          C89   1.275       .  A
O81          C90   1.272       .  A
O82          C89   1.274       .  A
O83         C284   1.274       .  A
O84         C285   1.273       .  A
O85          C91   1.273   1_554  A
C86         C113   1.466       .  S
C87         C156   1.486       .  S
C87         O273   1.272       .  A
C88         C166   1.484       .  S
C88         O270   1.274   1_554  A
C89         C111   1.470       .  S
C90         C189   1.486       .  S
C90         O277   1.274   1_554  A
C91         C179   1.490   1_556  S
C91         O278   1.273       .  A
Zn92         O96   1.956       .  S
Zn92         O97   2.016       .  S
Zn92        O101   2.021       .  S
Zn92        O108   2.013       .  S
Zn93         O96   1.960       .  S
Zn93         O98   2.003       .  S
Zn93        O100   2.018       .  S
Zn93        O104   2.010       .  S
Zn94         O96   1.960       .  S
Zn94         O99   2.019       .  S
Zn94        O102   2.018       .  S
Zn94        O105   2.016       .  S
Zn95         O96   1.955       .  S
Zn95        O103   2.014       .  S
Zn95        O106   2.012       .  S
Zn95        O107   2.017       .  S
O97         C109   1.273       .  A
O98         C110   1.273       .  A
O99         C111   1.274       .  A
O100        C109   1.274       .  A
O101        C111   1.274       .  A
O102        C110   1.272       .  A
O103        C112   1.272       .  A
O104        C113   1.272       .  A
O105        C112   1.274       .  A
O106        C113   1.273       .  A
O107        C114   1.272       .  A
O108        C114   1.274       .  A
C109        C149   1.483       .  S
C110        C119   1.489       .  S
C112        C126   1.484       .  S
C114        C139   1.488       .  S
C115        C116   1.401       .  A
C115        C120   1.399       .  A
C115        H122   1.084       .  S
C116        C117   1.406       .  A
C117        C118   1.395       .  A
C117       Br124   1.920       .  S
C118        C119   1.409       .  A
C118        H123   1.083       .  S
C119        C120   1.419       .  A
C120       Br121   1.921       .  S
C125        C126   1.407       .  A
C125        C130   1.397       .  A
C125        H132   1.083       .  S
C126        C127   1.417       .  A
C127        C128   1.400       .  A
C127       Br134   1.922       .  S
C128        C129   1.400       .  A
C128        H133   1.084       .  S
C129        C130   1.404       .  A
C130       Br131   1.919       .  S
C135        C136   1.400       .  A
C135        C140   1.399       .  A
C135        H142   1.084       .  S
C136        C137   1.405       .  A
C137        C138   1.397       .  A
C137       Br144   1.920       .  S
C138        C139   1.409       .  A
C138        H143   1.083       .  S
C139        C140   1.418       .  A
C140       Br141   1.922       .  S
C145        C146   1.400       .  A
C145        C150   1.399       .  A
C145        H152   1.084       .  S
C146        C147   1.405       .  A
C147        C148   1.399       .  A
C147       Br154   1.919       .  S
C148        C149   1.408       .  A
C148        H153   1.083       .  S
C149        C150   1.416       .  A
C150       Br151   1.922       .  S
C155        C156   1.408   1_554  A
C155        C160   1.398       .  A
C155        H162   1.083       .  S
C156        C351   1.417       .  A
C157        C158   1.399       .  A
C157        C350   1.417       .  A
C157       Br164   1.920       .  S
C158        C353   1.399       .  A
C158        H163   1.084       .  S
C159        C160   1.405       .  A
C159        C352   1.399   1_554  A
C160       Br161   1.917       .  S
C165        C166   1.409       .  A
C165        C170   1.398       .  A
C165        H172   1.083       .  S
C166        C361   1.415   1_554  A
C167        C168   1.399       .  A
C167        C360   1.415       .  A
C167       Br174   1.921       .  S
C168        C363   1.400       .  A
C168        H173   1.084       .  S
C169        C170   1.404       .  A
C169        C362   1.400   1_554  A
C170       Br171   1.919       .  S
C175        C180   1.399       .  A
C175        C370   1.401       .  A
C175        H182   1.084       .  S
C176        C177   1.404       .  A
C176        C369   1.401   1_554  A
C177        C178   1.397       .  A
C177       Br184   1.920       .  S
C178        C179   1.411       .  A
C178        H183   1.083       .  S
C179        C374   1.419   1_554  A
C180        C373   1.419       .  A
C180       Br181   1.923       .  S
C185        C186   1.399       .  A
C185        C190   1.398       .  A
C185        H192   1.084       .  S
C186        C381   1.405   1_554  A
C187        C188   1.399       .  A
C187        C380   1.405       .  A
C187       Br194   1.919       .  S
C188        C383   1.409       .  A
C188        H193   1.083       .  S
C189        C190   1.418       .  A
C189        C382   1.409   1_554  A
C190       Br191   1.922       .  S
N195        H227   1.039       .  S
N195        C588   1.353   1_545  A
N195        C199   1.352       .  A
N196        C979   1.350       .  A
N196        C204   1.351       .  A
N197        H228   1.038       .  S
N197        C590   1.351   1_545  A
N197        C201   1.351       .  A
N198        C981   1.350       .  A
N198        C206   1.351       .  A
C199        C207   1.387       .  A
C199        C215   1.414       .  A
C200        N583   1.353       .  A
C200        C216   1.414       .  A
C200        C208   1.387       .  A
C201        C209   1.387       .  A
C201        C218   1.412       .  A
C202        N585   1.351       .  A
C202        C217   1.411       .  A
C202        C210   1.386       .  A
C203        N972   1.350       .  A
C203        C215   1.411       .  A
C203        C211   1.386       .  A
C204        C218   1.414       .  A
C204        C212   1.387       .  A
C205        N974   1.350   1_455  A
C205        C213   1.386       .  A
C205        C216   1.411       .  A
C206        C214   1.386       .  A
C206        C217   1.411       .  A
C207        C596   1.376   1_545  A
C207        H219   1.082       .  S
C208        C595   1.376       .  A
C208        H220   1.082       .  S
C209        C598   1.376   1_545  A
C209        H221   1.082       .  S
C210        C597   1.376       .  A
C210        H222   1.082       .  S
C211        C988   1.374   1_455  A
C211        H223   1.082       .  S
C212        C987   1.374       .  A
C212        H224   1.082       .  S
C213        C990   1.373   1_455  A
C213        H225   1.082       .  S
C214        C989   1.373       .  A
C214        H226   1.082       .  S
C215        C380   1.483       .  S
C216        C353   1.484       .  S
C217        C363   1.481       .  S
C218        C370   1.484       .  S
N229        H261   1.039       .  S
N229        C622   1.351       .  A
N229        C233   1.352       .  A
N230       C1013   1.350   1_455  A
N230        C238   1.349       .  A
N231        H262   1.040       .  S
N231        C624   1.352       .  A
N231        C235   1.352       .  A
N232       C1015   1.350   1_455  A
N232        C240   1.350       .  A
C233        C241   1.386       .  A
C233        C249   1.411       .  A
C234        N617   1.351   1_545  A
C234        C250   1.413       .  A
C234        C242   1.387       .  A
C235        C243   1.387       .  A
C235        C252   1.414       .  A
C236        N619   1.352   1_545  A
C236        C251   1.412       .  A
C236        C244   1.386       .  A
C237       N1006   1.350       .  A
C237        C249   1.409       .  A
C237        C245   1.385       .  A
C238        C252   1.411       .  A
C238        C246   1.387       .  A
C239       N1008   1.350       .  A
C239        C247   1.387       .  A
C239        C250   1.412       .  A
C240        C248   1.386       .  A
C240        C251   1.411       .  A
C241        C630   1.376       .  A
C241        H253   1.082       .  S
C242        C629   1.376   1_545  A
C242        H254   1.082       .  S
C243        C632   1.375       .  A
C243        H255   1.082       .  S
C244        C631   1.375   1_545  A
C244        H256   1.082       .  S
C245       C1022   1.373       .  A
C245        H257   1.082       .  S
C246       C1021   1.373   1_455  A
C246        H258   1.082       .  S
C247       C1024   1.375       .  A
C247        H259   1.082       .  S
C248       C1023   1.375   1_455  A
C248        H260   1.082       .  S
C249        C323   1.481       .  S
C250        C330   1.483       .  S
C251        C340   1.483       .  S
C252        C310   1.485       .  S
Zn263       O267   1.953       .  S
Zn263       O268   1.998       .  S
Zn263       O272   2.012       .  S
Zn263       O279   2.003       .  S
Zn264       O267   1.960       .  S
Zn264       O269   2.018       .  S
Zn264       O271   2.023       .  S
Zn264       O275   2.012       .  S
Zn265       O270   2.026       .  S
Zn265       O273   2.012       .  S
Zn265       O276   2.017       .  S
Zn266       O274   2.024       .  S
Zn266       O277   2.021       .  S
Zn266       O278   2.022       .  S
O268        C280   1.271       .  A
O269        C281   1.274       .  A
O271        C280   1.274       .  A
O272        C282   1.273       .  A
O274        C283   1.275       .  A
O275        C284   1.272       .  A
O276        C283   1.274       .  A
O279        C285   1.273       .  A
C280        C307   1.466       .  S
C281        C350   1.486       .  S
C282        C360   1.484       .  S
C283        C305   1.470       .  S
C284        C383   1.486       .  S
C285        C373   1.490       .  S
Zn286       O290   1.956       .  S
Zn286       O291   2.016       .  S
Zn286       O295   2.021       .  S
Zn286       O302   2.013       .  S
Zn287       O290   1.960       .  S
Zn287       O292   2.003       .  S
Zn287       O294   2.018       .  S
Zn287       O298   2.010       .  S
Zn288       O290   1.960       .  S
Zn288       O293   2.019       .  S
Zn288       O296   2.018       .  S
Zn288       O299   2.016       .  S
Zn289       O290   1.955       .  S
Zn289       O297   2.014       .  S
Zn289       O300   2.012       .  S
Zn289       O301   2.017       .  S
O291        C303   1.273       .  A
O292        C304   1.273       .  A
O293        C305   1.274       .  A
O294        C303   1.274       .  A
O295        C305   1.274       .  A
O296        C304   1.272       .  A
O297        C306   1.272       .  A
O298        C307   1.272       .  A
O299        C306   1.274       .  A
O300        C307   1.273       .  A
O301        C308   1.272       .  A
O302        C308   1.274       .  A
C303        C343   1.483       .  S
C304        C313   1.489       .  S
C306        C320   1.484       .  S
C308        C333   1.488       .  S
C309        C310   1.401       .  A
C309        C314   1.399       .  A
C309        H316   1.084       .  S
C310        C311   1.406       .  A
C311        C312   1.395       .  A
C311       Br318   1.920       .  S
C312        C313   1.409       .  A
C312        H317   1.083       .  S
C313        C314   1.419       .  A
C314       Br315   1.921       .  S
C319        C320   1.407       .  A
C319        C324   1.397       .  A
C319        H326   1.083       .  S
C320        C321   1.417       .  A
C321        C322   1.400       .  A
C321       Br328   1.922       .  S
C322        C323   1.400       .  A
C322        H327   1.084       .  S
C323        C324   1.404       .  A
C324       Br325   1.919       .  S
C329        C330   1.400       .  A
C329        C334   1.399       .  A
C329        H336   1.084       .  S
C330        C331   1.405       .  A
C331        C332   1.397       .  A
C331       Br338   1.920       .  S
C332        C333   1.409       .  A
C332        H337   1.083       .  S
C333        C334   1.418       .  A
C334       Br335   1.922       .  S
C339        C340   1.400       .  A
C339        C344   1.399       .  A
C339        H346   1.084       .  S
C340        C341   1.405       .  A
C341        C342   1.399       .  A
C341       Br348   1.919       .  S
C342        C343   1.408       .  A
C342        H347   1.083       .  S
C343        C344   1.416       .  A
C344       Br345   1.922       .  S
C349        C350   1.408       .  A
C349        C354   1.398       .  A
C349        H356   1.083       .  S
C351        C352   1.399       .  A
C351       Br358   1.920       .  S
C352        H357   1.084       .  S
C353        C354   1.405       .  A
C354       Br355   1.917       .  S
C359        C360   1.409       .  A
C359        C364   1.398       .  A
C359        H366   1.083       .  S
C361        C362   1.399       .  A
C361       Br368   1.921       .  S
C362        H367   1.084       .  S
C363        C364   1.404       .  A
C364       Br365   1.919       .  S
C369        C374   1.399       .  A
C369        H376   1.084       .  S
C370        C371   1.404       .  A
C371        C372   1.397       .  A
C371       Br378   1.920       .  S
C372        C373   1.411       .  A
C372        H377   1.083       .  S
C374       Br375   1.923       .  S
C379        C380   1.399       .  A
C379        C384   1.398       .  A
C379        H386   1.084       .  S
C381        C382   1.399       .  A
C381       Br388   1.919       .  S
C382        H387   1.083       .  S
C383        C384   1.418       .  A
C384       Br385   1.922       .  S
N389        H421   1.039   1_554  S
N389        C393   1.352       .  A
N390       C1173   1.350   1_554  A
N390        C398   1.351       .  A
N391        H422   1.038   1_554  S
N391        C395   1.351       .  A
N392       C1175   1.350   1_554  A
N392        C400   1.351       .  A
C393        C401   1.387       .  A
C393        C409   1.414       .  A
C394        C410   1.414       .  A
C394        C402   1.387       .  A
C395        C403   1.387       .  A
C395        C412   1.412       .  A
C396        C411   1.411       .  A
C396        C404   1.386       .  A
C397       N1166   1.350   1_556  A
C397        C409   1.411   1_556  A
C397        C405   1.386       .  A
C398        C412   1.414       .  A
C398        C406   1.387   1_554  A
C399       N1168   1.350   1_456  A
C399        C407   1.386       .  A
C399        C410   1.411   1_556  A
C400        C408   1.386   1_554  A
C400        C411   1.411       .  A
C401        H413   1.082       .  S
C402        H414   1.082       .  S
C403        H415   1.082       .  S
C404        H416   1.082       .  S
C405       C1182   1.374   1_455  A
C405        H417   1.082       .  S
C406       C1181   1.374       .  A
C406        H418   1.082       .  S
C407       C1184   1.373   1_455  A
C407        H419   1.082       .  S
C408       C1183   1.373       .  A
C408        H420   1.082       .  S
C409        C574   1.483       .  S
C410        C547   1.484       .  S
C411        C557   1.481       .  S
C412        C564   1.484       .  S
N423        H455   1.039       .  S
N423        C427   1.352       .  A
N424       C1207   1.350   1_455  A
N424        C432   1.349       .  A
N425        H456   1.040       .  S
N425        C429   1.352       .  A
N426       C1209   1.350   1_455  A
N426        C434   1.350       .  A
C427        C435   1.386       .  A
C427        C443   1.411       .  A
C428        C444   1.413       .  A
C428        C436   1.387       .  A
C429        C437   1.387       .  A
C429        C446   1.414       .  A
C430        C445   1.412       .  A
C430        C438   1.386       .  A
C431       N1200   1.350       .  A
C431        C443   1.409       .  A
C431        C439   1.385       .  A
C432        C446   1.411       .  A
C432        C440   1.387       .  A
C433       N1202   1.350       .  A
C433        C441   1.387       .  A
C433        C444   1.412       .  A
C434        C442   1.386       .  A
C434        C445   1.411       .  A
C435        H447   1.082       .  S
C436        H448   1.082       .  S
C437        H449   1.082       .  S
C438        H450   1.082       .  S
C439       C1216   1.373       .  A
C439        H451   1.082       .  S
C440       C1215   1.373   1_455  A
C440        H452   1.082       .  S
C441       C1218   1.375       .  A
C441        H453   1.082       .  S
C442       C1217   1.375   1_455  A
C442        H454   1.082       .  S
C443        C517   1.481       .  S
C444        C524   1.483       .  S
C445        C534   1.483       .  S
C446        C504   1.485       .  S
Zn457       O461   1.953   1_554  S
Zn457       O462   1.998       .  S
Zn457       O466   2.012       .  S
Zn457       O473   2.003       .  S
Zn458       O461   1.960   1_554  S
Zn458       O463   2.018       .  S
Zn458       O465   2.023       .  S
Zn458       O469   2.012       .  S
Zn459       O655   1.958       .  S
Zn459       O464   2.027       .  S
Zn459       O467   2.012       .  S
Zn459       O470   2.017       .  S
Zn460       O655   1.963       .  S
Zn460       O468   2.024       .  S
Zn460       O471   2.021       .  S
Zn460       O472   2.022       .  S
O461       Zn653   1.958       .  S
O461       Zn654   1.963       .  S
O462        C474   1.271       .  A
O463        C475   1.274   1_554  A
O464        C670   1.274       .  A
O465        C474   1.274       .  A
O466        C476   1.273       .  A
O467        C669   1.272       .  A
O468        C477   1.275       .  A
O469        C478   1.272       .  A
O470        C477   1.274       .  A
O471        C672   1.274       .  A
O472        C673   1.273       .  A
O473        C479   1.273   1_554  A
C474        C501   1.466       .  S
C475        C544   1.486       .  S
C475        O661   1.272       .  A
C476        C554   1.484       .  S
C476        O658   1.274   1_554  A
C477        C499   1.470       .  S
C478        C577   1.486       .  S
C478        O665   1.274   1_554  A
C479        C567   1.490   1_556  S
C479        O666   1.273       .  A
Zn480       O484   1.956       .  S
Zn480       O485   2.016       .  S
Zn480       O489   2.021       .  S
Zn480       O496   2.013       .  S
Zn481       O484   1.960       .  S
Zn481       O486   2.003       .  S
Zn481       O488   2.018       .  S
Zn481       O492   2.010       .  S
Zn482       O484   1.960       .  S
Zn482       O487   2.019       .  S
Zn482       O490   2.018       .  S
Zn482       O493   2.016       .  S
Zn483       O484   1.955       .  S
Zn483       O491   2.014       .  S
Zn483       O494   2.012       .  S
Zn483       O495   2.017       .  S
O485        C497   1.273       .  A
O486        C498   1.273       .  A
O487        C499   1.274       .  A
O488        C497   1.274       .  A
O489        C499   1.274       .  A
O490        C498   1.272       .  A
O491        C500   1.272       .  A
O492        C501   1.272       .  A
O493        C500   1.274       .  A
O494        C501   1.273       .  A
O495        C502   1.272       .  A
O496        C502   1.274       .  A
C497        C537   1.483       .  S
C498        C507   1.489       .  S
C500        C514   1.484       .  S
C502        C527   1.488       .  S
C503        C504   1.401       .  A
C503        C508   1.399       .  A
C503        H510   1.084       .  S
C504        C505   1.406       .  A
C505        C506   1.395       .  A
C505       Br512   1.920       .  S
C506        C507   1.409       .  A
C506        H511   1.083       .  S
C507        C508   1.419       .  A
C508       Br509   1.921       .  S
C513        C514   1.407       .  A
C513        C518   1.397       .  A
C513        H520   1.083       .  S
C514        C515   1.417       .  A
C515        C516   1.400       .  A
C515       Br522   1.922       .  S
C516        C517   1.400       .  A
C516        H521   1.084       .  S
C517        C518   1.404       .  A
C518       Br519   1.919       .  S
C523        C524   1.400       .  A
C523        C528   1.399       .  A
C523        H530   1.084       .  S
C524        C525   1.405       .  A
C525        C526   1.397       .  A
C525       Br532   1.920       .  S
C526        C527   1.409       .  A
C526        H531   1.083       .  S
C527        C528   1.418       .  A
C528       Br529   1.922       .  S
C533        C534   1.400       .  A
C533        C538   1.399       .  A
C533        H540   1.084       .  S
C534        C535   1.405       .  A
C535        C536   1.399       .  A
C535       Br542   1.919       .  S
C536        C537   1.408       .  A
C536        H541   1.083       .  S
C537        C538   1.416       .  A
C538       Br539   1.922       .  S
C543        C544   1.408   1_554  A
C543        C548   1.398       .  A
C543        H550   1.083       .  S
C544        C739   1.417       .  A
C545        C738   1.417       .  A
C545        C546   1.399       .  A
C545       Br552   1.920       .  S
C546        C741   1.399       .  A
C546        H551   1.084       .  S
C547        C740   1.399   1_554  A
C547        C548   1.405       .  A
C548       Br549   1.917       .  S
C553        C554   1.409       .  A
C553        C558   1.398       .  A
C553        H560   1.083       .  S
C554        C749   1.415   1_554  A
C555        C748   1.415       .  A
C555        C556   1.399       .  A
C555       Br562   1.921       .  S
C556        C751   1.400       .  A
C556        H561   1.084       .  S
C557        C750   1.400   1_554  A
C557        C558   1.404       .  A
C558       Br559   1.919       .  S
C563        C758   1.401       .  A
C563        C568   1.399       .  A
C563        H570   1.084       .  S
C564        C757   1.401   1_554  A
C564        C565   1.404       .  A
C565        C566   1.397       .  A
C565       Br572   1.920       .  S
C566        C567   1.411       .  A
C566        H571   1.083       .  S
C567        C762   1.419   1_554  A
C568        C761   1.419       .  A
C568       Br569   1.923       .  S
C573        C574   1.399       .  A
C573        C578   1.398       .  A
C573        H580   1.084       .  S
C574        C769   1.405   1_554  A
C575        C768   1.405       .  A
C575        C576   1.399       .  A
C575       Br582   1.919       .  S
C576        C771   1.409       .  A
C576        H581   1.083       .  S
C577        C770   1.409   1_554  A
C577        C578   1.418       .  A
C578       Br579   1.922       .  S
N583        H615   1.039       .  S
N583        C587   1.352       .  A
N584       C1367   1.350       .  A
N584        C592   1.351       .  A
N585        H616   1.038       .  S
N585        C589   1.351       .  A
N586       C1369   1.350       .  A
N586        C594   1.351       .  A
C587        C595   1.387       .  A
C587        C603   1.414       .  A
C588        C604   1.414       .  A
C588        C596   1.387       .  A
C589        C597   1.387       .  A
C589        C606   1.412       .  A
C590        C605   1.411       .  A
C590        C598   1.386       .  A
C591       N1360   1.350       .  A
C591        C603   1.411       .  A
C591        C599   1.386       .  A
C592        C606   1.414       .  A
C592        C600   1.387       .  A
C593       N1362   1.350   1_455  A
C593        C601   1.386       .  A
C593        C604   1.411       .  A
C594        C602   1.386       .  A
C594        C605   1.411       .  A
C595        H607   1.082       .  S
C596        H608   1.082       .  S
C597        H609   1.082       .  S
C598        H610   1.082       .  S
C599       C1376   1.374   1_455  A
C599        H611   1.082       .  S
C600       C1375   1.374       .  A
C600        H612   1.082       .  S
C601       C1378   1.373   1_455  A
C601        H613   1.082       .  S
C602       C1377   1.373       .  A
C602        H614   1.082       .  S
C603        C768   1.483       .  S
C604        C741   1.484       .  S
C605        C751   1.481       .  S
C606        C758   1.484       .  S
N617        H649   1.039       .  S
N617        C621   1.352       .  A
N618       C1401   1.350   1_455  A
N618        C626   1.349       .  A
N619        H650   1.040       .  S
N619        C623   1.352       .  A
N620       C1403   1.350   1_455  A
N620        C628   1.350       .  A
C621        C629   1.386       .  A
C621        C637   1.411       .  A
C622        C638   1.413       .  A
C622        C630   1.387       .  A
C623        C631   1.387       .  A
C623        C640   1.414       .  A
C624        C639   1.412       .  A
C624        C632   1.386       .  A
C625       N1394   1.350       .  A
C625        C637   1.409       .  A
C625        C633   1.385       .  A
C626        C640   1.411       .  A
C626        C634   1.387       .  A
C627       N1396   1.350       .  A
C627        C635   1.387       .  A
C627        C638   1.412       .  A
C628        C636   1.386       .  A
C628        C639   1.411       .  A
C629        H641   1.082       .  S
C630        H642   1.082       .  S
C631        H643   1.082       .  S
C632        H644   1.082       .  S
C633       C1410   1.373       .  A
C633        H645   1.082       .  S
C634       C1409   1.373   1_455  A
C634        H646   1.082       .  S
C635       C1412   1.375       .  A
C635        H647   1.082       .  S
C636       C1411   1.375   1_455  A
C636        H648   1.082       .  S
C637        C711   1.481       .  S
C638        C718   1.483       .  S
C639        C728   1.483       .  S
C640        C698   1.485       .  S
Zn651       O655   1.953       .  S
Zn651       O656   1.998       .  S
Zn651       O660   2.012       .  S
Zn651       O667   2.003       .  S
Zn652       O655   1.960       .  S
Zn652       O657   2.018       .  S
Zn652       O659   2.023       .  S
Zn652       O663   2.012       .  S
Zn653       O658   2.026       .  S
Zn653       O661   2.012       .  S
Zn653       O664   2.017       .  S
Zn654       O662   2.024       .  S
Zn654       O665   2.021       .  S
Zn654       O666   2.022       .  S
O656        C668   1.271       .  A
O657        C669   1.274       .  A
O659        C668   1.274       .  A
O660        C670   1.273       .  A
O662        C671   1.275       .  A
O663        C672   1.272       .  A
O664        C671   1.274       .  A
O667        C673   1.273       .  A
C668        C695   1.466       .  S
C669        C738   1.486       .  S
C670        C748   1.484       .  S
C671        C693   1.470       .  S
C672        C771   1.486       .  S
C673        C761   1.490       .  S
Zn674       O678   1.956       .  S
Zn674       O679   2.016       .  S
Zn674       O683   2.021       .  S
Zn674       O690   2.013       .  S
Zn675       O678   1.960       .  S
Zn675       O680   2.003       .  S
Zn675       O682   2.018       .  S
Zn675       O686   2.010       .  S
Zn676       O678   1.960       .  S
Zn676       O681   2.019       .  S
Zn676       O684   2.018       .  S
Zn676       O687   2.016       .  S
Zn677       O678   1.955       .  S
Zn677       O685   2.014       .  S
Zn677       O688   2.012       .  S
Zn677       O689   2.017       .  S
O679        C691   1.273       .  A
O680        C692   1.273       .  A
O681        C693   1.274       .  A
O682        C691   1.274       .  A
O683        C693   1.274       .  A
O684        C692   1.272       .  A
O685        C694   1.272       .  A
O686        C695   1.272       .  A
O687        C694   1.274       .  A
O688        C695   1.273       .  A
O689        C696   1.272       .  A
O690        C696   1.274       .  A
C691        C731   1.483       .  S
C692        C701   1.489       .  S
C694        C708   1.484       .  S
C696        C721   1.488       .  S
C697        C698   1.401       .  A
C697        C702   1.399       .  A
C697        H704   1.084       .  S
C698        C699   1.406       .  A
C699        C700   1.395       .  A
C699       Br706   1.920       .  S
C700        C701   1.409       .  A
C700        H705   1.083       .  S
C701        C702   1.419       .  A
C702       Br703   1.921       .  S
C707        C708   1.407       .  A
C707        C712   1.397       .  A
C707        H714   1.083       .  S
C708        C709   1.417       .  A
C709        C710   1.400       .  A
C709       Br716   1.922       .  S
C710        C711   1.400       .  A
C710        H715   1.084       .  S
C711        C712   1.404       .  A
C712       Br713   1.919       .  S
C717        C718   1.400       .  A
C717        C722   1.399       .  A
C717        H724   1.084       .  S
C718        C719   1.405       .  A
C719        C720   1.397       .  A
C719       Br726   1.920       .  S
C720        C721   1.409       .  A
C720        H725   1.083       .  S
C721        C722   1.418       .  A
C722       Br723   1.922       .  S
C727        C728   1.400       .  A
C727        C732   1.399       .  A
C727        H734   1.084       .  S
C728        C729   1.405       .  A
C729        C730   1.399       .  A
C729       Br736   1.919       .  S
C730        C731   1.408       .  A
C730        H735   1.083       .  S
C731        C732   1.416       .  A
C732       Br733   1.922       .  S
C737        C738   1.408       .  A
C737        C742   1.398       .  A
C737        H744   1.083       .  S
C739        C740   1.399       .  A
C739       Br746   1.920       .  S
C740        H745   1.084       .  S
C741        C742   1.405       .  A
C742       Br743   1.917       .  S
C747        C748   1.409       .  A
C747        C752   1.398       .  A
C747        H754   1.083       .  S
C749        C750   1.399       .  A
C749       Br756   1.921       .  S
C750        H755   1.084       .  S
C751        C752   1.404       .  A
C752       Br753   1.919       .  S
C757        C762   1.399       .  A
C757        H764   1.084       .  S
C758        C759   1.404       .  A
C759        C760   1.397       .  A
C759       Br766   1.920       .  S
C760        C761   1.411       .  A
C760        H765   1.083       .  S
C762       Br763   1.923       .  S
C767        C768   1.399       .  A
C767        C772   1.398       .  A
C767        H774   1.084       .  S
C769        C770   1.399       .  A
C769       Br776   1.919       .  S
C770        H775   1.083       .  S
C771        C772   1.418       .  A
C772       Br773   1.922       .  S
N777        H809   1.039   1_554  S
N777       C1170   1.353   1_545  A
N777        C781   1.352       .  A
N778        C786   1.351   1_455  A
N779        H810   1.038   1_554  S
N779       C1172   1.351   1_545  A
N779        C783   1.351       .  A
N780        C788   1.351       .  A
C781        C789   1.387       .  A
C781        C797   1.414       .  A
C782       N1165   1.353       .  A
C782        C798   1.414       .  A
C782        C790   1.387       .  A
C783        C791   1.387       .  A
C783        C800   1.412       .  A
C784       N1167   1.351       .  A
C784        C799   1.411       .  A
C784        C792   1.386       .  A
C785        C797   1.411   1_556  A
C785        C793   1.386       .  A
C786        C800   1.414       .  A
C786        C794   1.387   1_554  A
C787        C795   1.386       .  A
C787        C798   1.411   1_556  A
C788        C796   1.386   1_554  A
C788        C799   1.411       .  A
C789       C1178   1.376   1_545  A
C789        H801   1.082       .  S
C790       C1177   1.376       .  A
C790        H802   1.082       .  S
C791       C1180   1.376   1_545  A
C791        H803   1.082       .  S
C792       C1179   1.376       .  A
C792        H804   1.082       .  S
C793        H805   1.082       .  S
C794        H806   1.082       .  S
C795        H807   1.082       .  S
C796        H808   1.082       .  S
C797        C962   1.483       .  S
C798        C935   1.484       .  S
C799        C945   1.481       .  S
C800        C952   1.484       .  S
N811        H843   1.039       .  S
N811       C1204   1.351       .  A
N811        C815   1.352       .  A
N812        C820   1.349       .  A
N813        H844   1.040       .  S
N813       C1206   1.352       .  A
N813        C817   1.352       .  A
N814        C822   1.350       .  A
C815        C823   1.386       .  A
C815        C831   1.411       .  A
C816       N1199   1.351   1_545  A
C816        C832   1.413       .  A
C816        C824   1.387       .  A
C817        C825   1.387       .  A
C817        C834   1.414       .  A
C818       N1201   1.352   1_545  A
C818        C833   1.412       .  A
C818        C826   1.386       .  A
C819        C831   1.409       .  A
C819        C827   1.385       .  A
C820        C834   1.411       .  A
C820        C828   1.387       .  A
C821        C829   1.387       .  A
C821        C832   1.412       .  A
C822        C830   1.386       .  A
C822        C833   1.411       .  A
C823       C1212   1.376       .  A
C823        H835   1.082       .  S
C824       C1211   1.376   1_545  A
C824        H836   1.082       .  S
C825       C1214   1.375       .  A
C825        H837   1.082       .  S
C826       C1213   1.375   1_545  A
C826        H838   1.082       .  S
C827        H839   1.082       .  S
C828        H840   1.082       .  S
C829        H841   1.082       .  S
C830        H842   1.082       .  S
C831        C905   1.481       .  S
C832        C912   1.483       .  S
C833        C922   1.483       .  S
C834        C892   1.485       .  S
Zn845       O849   1.953   1_554  S
Zn845       O850   1.998       .  S
Zn845       O854   2.012       .  S
Zn845       O861   2.003       .  S
Zn846       O849   1.960   1_554  S
Zn846       O851   2.018       .  S
Zn846       O853   2.023       .  S
Zn846       O857   2.012       .  S
Zn847      O1043   1.958       .  S
Zn847       O852   2.027       .  S
Zn847       O855   2.012       .  S
Zn847       O858   2.017       .  S
Zn848      O1043   1.963       .  S
Zn848       O856   2.024       .  S
Zn848       O859   2.021       .  S
Zn848       O860   2.022       .  S
O849      Zn1041   1.958       .  S
O849      Zn1042   1.963       .  S
O850        C862   1.271       .  A
O851        C863   1.274   1_554  A
O852       C1058   1.274       .  A
O853        C862   1.274       .  A
O854        C864   1.273       .  A
O855       C1057   1.272       .  A
O856        C865   1.275       .  A
O857        C866   1.272       .  A
O858        C865   1.274       .  A
O859       C1060   1.274       .  A
O860       C1061   1.273       .  A
O861        C867   1.273   1_554  A
C862        C889   1.466       .  S
C863        C932   1.486       .  S
C863       O1049   1.272       .  A
C864        C942   1.484       .  S
C864       O1046   1.274   1_554  A
C865        C887   1.470       .  S
C866        C965   1.486       .  S
C866       O1053   1.274   1_554  A
C867        C955   1.490   1_556  S
C867       O1054   1.273       .  A
Zn868       O872   1.956       .  S
Zn868       O873   2.016       .  S
Zn868       O877   2.021       .  S
Zn868       O884   2.013       .  S
Zn869       O872   1.960       .  S
Zn869       O874   2.003       .  S
Zn869       O876   2.018       .  S
Zn869       O880   2.010       .  S
Zn870       O872   1.960       .  S
Zn870       O875   2.019       .  S
Zn870       O878   2.018       .  S
Zn870       O881   2.016       .  S
Zn871       O872   1.955       .  S
Zn871       O879   2.014       .  S
Zn871       O882   2.012       .  S
Zn871       O883   2.017       .  S
O873        C885   1.273       .  A
O874        C886   1.273       .  A
O875        C887   1.274       .  A
O876        C885   1.274       .  A
O877        C887   1.274       .  A
O878        C886   1.272       .  A
O879        C888   1.272       .  A
O880        C889   1.272       .  A
O881        C888   1.274       .  A
O882        C889   1.273       .  A
O883        C890   1.272       .  A
O884        C890   1.274       .  A
C885        C925   1.483       .  S
C886        C895   1.489       .  S
C888        C902   1.484       .  S
C890        C915   1.488       .  S
C891        C892   1.401       .  A
C891        C896   1.399       .  A
C891        H898   1.084       .  S
C892        C893   1.406       .  A
C893        C894   1.395       .  A
C893       Br900   1.920       .  S
C894        C895   1.409       .  A
C894        H899   1.083       .  S
C895        C896   1.419       .  A
C896       Br897   1.921       .  S
C901        C902   1.407       .  A
C901        C906   1.397       .  A
C901        H908   1.083       .  S
C902        C903   1.417       .  A
C903        C904   1.400       .  A
C903       Br910   1.922       .  S
C904        C905   1.400       .  A
C904        H909   1.084       .  S
C905        C906   1.404       .  A
C906       Br907   1.919       .  S
C911        C912   1.400       .  A
C911        C916   1.399       .  A
C911        H918   1.084       .  S
C912        C913   1.405       .  A
C913        C914   1.397       .  A
C913       Br920   1.920       .  S
C914        C915   1.409       .  A
C914        H919   1.083       .  S
C915        C916   1.418       .  A
C916       Br917   1.922       .  S
C921        C922   1.400       .  A
C921        C926   1.399       .  A
C921        H928   1.084       .  S
C922        C923   1.405       .  A
C923        C924   1.399       .  A
C923       Br930   1.919       .  S
C924        C925   1.408       .  A
C924        H929   1.083       .  S
C925        C926   1.416       .  A
C926       Br927   1.922       .  S
C931        C932   1.408   1_554  A
C931        C936   1.398       .  A
C931        H938   1.083       .  S
C932       C1127   1.417       .  A
C933       C1126   1.417       .  A
C933        C934   1.399       .  A
C933       Br940   1.920       .  S
C934       C1129   1.399       .  A
C934        H939   1.084       .  S
C935       C1128   1.399   1_554  A
C935        C936   1.405       .  A
C936       Br937   1.917       .  S
C941        C942   1.409       .  A
C941        C946   1.398       .  A
C941        H948   1.083       .  S
C942       C1137   1.415   1_554  A
C943       C1136   1.415       .  A
C943        C944   1.399       .  A
C943       Br950   1.921       .  S
C944       C1139   1.400       .  A
C944        H949   1.084       .  S
C945       C1138   1.400   1_554  A
C945        C946   1.404       .  A
C946       Br947   1.919       .  S
C951       C1146   1.401       .  A
C951        C956   1.399       .  A
C951        H958   1.084       .  S
C952       C1145   1.401   1_554  A
C952        C953   1.404       .  A
C953        C954   1.397       .  A
C953       Br960   1.920       .  S
C954        C955   1.411       .  A
C954        H959   1.083       .  S
C955       C1150   1.419   1_554  A
C956       C1149   1.419       .  A
C956       Br957   1.923       .  S
C961        C962   1.399       .  A
C961        C966   1.398       .  A
C961        H968   1.084       .  S
C962       C1157   1.405   1_554  A
C963       C1156   1.405       .  A
C963        C964   1.399       .  A
C963       Br970   1.919       .  S
C964       C1159   1.409       .  A
C964        H969   1.083       .  S
C965       C1158   1.409   1_554  A
C965        C966   1.418       .  A
C966       Br967   1.922       .  S
N971       H1003   1.039       .  S
N971       C1364   1.353   1_545  A
N971        C975   1.352       .  A
N972        C980   1.351   1_455  A
N973       H1004   1.038       .  S
N973       C1366   1.351   1_545  A
N973        C977   1.351       .  A
N974        C982   1.351       .  A
C975        C983   1.387       .  A
C975        C991   1.414       .  A
C976       N1359   1.353       .  A
C976        C992   1.414       .  A
C976        C984   1.387       .  A
C977        C985   1.387       .  A
C977        C994   1.412       .  A
C978       N1361   1.351       .  A
C978        C993   1.411       .  A
C978        C986   1.386       .  A
C979        C991   1.411       .  A
C979        C987   1.386       .  A
C980        C994   1.414       .  A
C980        C988   1.387       .  A
C981        C989   1.386       .  A
C981        C992   1.411       .  A
C982        C990   1.386       .  A
C982        C993   1.411       .  A
C983       C1372   1.376   1_545  A
C983        H995   1.082       .  S
C984       C1371   1.376       .  A
C984        H996   1.082       .  S
C985       C1374   1.376   1_545  A
C985        H997   1.082       .  S
C986       C1373   1.376       .  A
C986        H998   1.082       .  S
C987        H999   1.082       .  S
C988       H1000   1.082       .  S
C989       H1001   1.082       .  S
C990       H1002   1.082       .  S
C991       C1156   1.483       .  S
C992       C1129   1.484       .  S
C993       C1139   1.481       .  S
C994       C1146   1.484       .  S
N1005      H1037   1.039       .  S
N1005      C1398   1.351       .  A
N1005      C1009   1.352       .  A
N1006      C1014   1.349       .  A
N1007      H1038   1.040       .  S
N1007      C1400   1.352       .  A
N1007      C1011   1.352       .  A
N1008      C1016   1.350       .  A
C1009      C1017   1.386       .  A
C1009      C1025   1.411       .  A
C1010      N1393   1.351   1_545  A
C1010      C1026   1.413       .  A
C1010      C1018   1.387       .  A
C1011      C1019   1.387       .  A
C1011      C1028   1.414       .  A
C1012      N1395   1.352   1_545  A
C1012      C1027   1.412       .  A
C1012      C1020   1.386       .  A
C1013      C1025   1.409       .  A
C1013      C1021   1.385       .  A
C1014      C1028   1.411       .  A
C1014      C1022   1.387       .  A
C1015      C1023   1.387       .  A
C1015      C1026   1.412       .  A
C1016      C1024   1.386       .  A
C1016      C1027   1.411       .  A
C1017      C1406   1.376       .  A
C1017      H1029   1.082       .  S
C1018      C1405   1.376   1_545  A
C1018      H1030   1.082       .  S
C1019      C1408   1.375       .  A
C1019      H1031   1.082       .  S
C1020      C1407   1.375   1_545  A
C1020      H1032   1.082       .  S
C1021      H1033   1.082       .  S
C1022      H1034   1.082       .  S
C1023      H1035   1.082       .  S
C1024      H1036   1.082       .  S
C1025      C1099   1.481       .  S
C1026      C1106   1.483       .  S
C1027      C1116   1.483       .  S
C1028      C1086   1.485       .  S
Zn1039     O1043   1.953       .  S
Zn1039     O1044   1.998       .  S
Zn1039     O1048   2.012       .  S
Zn1039     O1055   2.003       .  S
Zn1040     O1043   1.960       .  S
Zn1040     O1045   2.018       .  S
Zn1040     O1047   2.023       .  S
Zn1040     O1051   2.012       .  S
Zn1041     O1046   2.026       .  S
Zn1041     O1049   2.012       .  S
Zn1041     O1052   2.017       .  S
Zn1042     O1050   2.024       .  S
Zn1042     O1053   2.021       .  S
Zn1042     O1054   2.022       .  S
O1044      C1056   1.271       .  A
O1045      C1057   1.274       .  A
O1047      C1056   1.274       .  A
O1048      C1058   1.273       .  A
O1050      C1059   1.275       .  A
O1051      C1060   1.272       .  A
O1052      C1059   1.274       .  A
O1055      C1061   1.273       .  A
C1056      C1083   1.466       .  S
C1057      C1126   1.486       .  S
C1058      C1136   1.484       .  S
C1059      C1081   1.470       .  S
C1060      C1159   1.486       .  S
C1061      C1149   1.490       .  S
Zn1062     O1066   1.956       .  S
Zn1062     O1067   2.016       .  S
Zn1062     O1071   2.021       .  S
Zn1062     O1078   2.013       .  S
Zn1063     O1066   1.960       .  S
Zn1063     O1068   2.003       .  S
Zn1063     O1070   2.018       .  S
Zn1063     O1074   2.010       .  S
Zn1064     O1066   1.960       .  S
Zn1064     O1069   2.019       .  S
Zn1064     O1072   2.018       .  S
Zn1064     O1075   2.016       .  S
Zn1065     O1066   1.955       .  S
Zn1065     O1073   2.014       .  S
Zn1065     O1076   2.012       .  S
Zn1065     O1077   2.017       .  S
O1067      C1079   1.273       .  A
O1068      C1080   1.273       .  A
O1069      C1081   1.274       .  A
O1070      C1079   1.274       .  A
O1071      C1081   1.274       .  A
O1072      C1080   1.272       .  A
O1073      C1082   1.272       .  A
O1074      C1083   1.272       .  A
O1075      C1082   1.274       .  A
O1076      C1083   1.273       .  A
O1077      C1084   1.272       .  A
O1078      C1084   1.274       .  A
C1079      C1119   1.483       .  S
C1080      C1089   1.489       .  S
C1082      C1096   1.484       .  S
C1084      C1109   1.488       .  S
C1085      C1086   1.401       .  A
C1085      C1090   1.399       .  A
C1085      H1092   1.084       .  S
C1086      C1087   1.406       .  A
C1087      C1088   1.395       .  A
C1087     Br1094   1.920       .  S
C1088      C1089   1.409       .  A
C1088      H1093   1.083       .  S
C1089      C1090   1.419       .  A
C1090     Br1091   1.921       .  S
C1095      C1096   1.407       .  A
C1095      C1100   1.397       .  A
C1095      H1102   1.083       .  S
C1096      C1097   1.417       .  A
C1097      C1098   1.400       .  A
C1097     Br1104   1.922       .  S
C1098      C1099   1.400       .  A
C1098      H1103   1.084       .  S
C1099      C1100   1.404       .  A
C1100     Br1101   1.919       .  S
C1105      C1106   1.400       .  A
C1105      C1110   1.399       .  A
C1105      H1112   1.084       .  S
C1106      C1107   1.405       .  A
C1107      C1108   1.397       .  A
C1107     Br1114   1.920       .  S
C1108      C1109   1.409       .  A
C1108      H1113   1.083       .  S
C1109      C1110   1.418       .  A
C1110     Br1111   1.922       .  S
C1115      C1116   1.400       .  A
C1115      C1120   1.399       .  A
C1115      H1122   1.084       .  S
C1116      C1117   1.405       .  A
C1117      C1118   1.399       .  A
C1117     Br1124   1.919       .  S
C1118      C1119   1.408       .  A
C1118      H1123   1.083       .  S
C1119      C1120   1.416       .  A
C1120     Br1121   1.922       .  S
C1125      C1126   1.408       .  A
C1125      C1130   1.398       .  A
C1125      H1132   1.083       .  S
C1127      C1128   1.399       .  A
C1127     Br1134   1.920       .  S
C1128      H1133   1.084       .  S
C1129      C1130   1.405       .  A
C1130     Br1131   1.917       .  S
C1135      C1136   1.409       .  A
C1135      C1140   1.398       .  A
C1135      H1142   1.083       .  S
C1137      C1138   1.399       .  A
C1137     Br1144   1.921       .  S
C1138      H1143   1.084       .  S
C1139      C1140   1.404       .  A
C1140     Br1141   1.919       .  S
C1145      C1150   1.399       .  A
C1145      H1152   1.084       .  S
C1146      C1147   1.404       .  A
C1147      C1148   1.397       .  A
C1147     Br1154   1.920       .  S
C1148      C1149   1.411       .  A
C1148      H1153   1.083       .  S
C1150     Br1151   1.923       .  S
C1155      C1156   1.399       .  A
C1155      C1160   1.398       .  A
C1155      H1162   1.084       .  S
C1157      C1158   1.399       .  A
C1157     Br1164   1.919       .  S
C1158      H1163   1.083       .  S
C1159      C1160   1.418       .  A
C1160     Br1161   1.922       .  S
N1165      H1197   1.039   1_554  S
N1165      C1169   1.352       .  A
N1166      C1174   1.351   1_455  A
N1167      H1198   1.038   1_554  S
N1167      C1171   1.351       .  A
N1168      C1176   1.351       .  A
C1169      C1177   1.387       .  A
C1169      C1185   1.414       .  A
C1170      C1186   1.414       .  A
C1170      C1178   1.387       .  A
C1171      C1179   1.387       .  A
C1171      C1188   1.412       .  A
C1172      C1187   1.411       .  A
C1172      C1180   1.386       .  A
C1173      C1185   1.411   1_556  A
C1173      C1181   1.386       .  A
C1174      C1188   1.414       .  A
C1174      C1182   1.387   1_554  A
C1175      C1183   1.386       .  A
C1175      C1186   1.411   1_556  A
C1176      C1184   1.386   1_554  A
C1176      C1187   1.411       .  A
C1177      H1189   1.082       .  S
C1178      H1190   1.082       .  S
C1179      H1191   1.082       .  S
C1180      H1192   1.082       .  S
C1181      H1193   1.082       .  S
C1182      H1194   1.082       .  S
C1183      H1195   1.082       .  S
C1184      H1196   1.082       .  S
C1185      C1350   1.483       .  S
C1186      C1323   1.484       .  S
C1187      C1333   1.481       .  S
C1188      C1340   1.484       .  S
N1199      H1231   1.039       .  S
N1199      C1203   1.352       .  A
N1200      C1208   1.349       .  A
N1201      H1232   1.040       .  S
N1201      C1205   1.352       .  A
N1202      C1210   1.350       .  A
C1203      C1211   1.386       .  A
C1203      C1219   1.411       .  A
C1204      C1220   1.413       .  A
C1204      C1212   1.387       .  A
C1205      C1213   1.387       .  A
C1205      C1222   1.414       .  A
C1206      C1221   1.412       .  A
C1206      C1214   1.386       .  A
C1207      C1219   1.409       .  A
C1207      C1215   1.385       .  A
C1208      C1222   1.411       .  A
C1208      C1216   1.387       .  A
C1209      C1217   1.387       .  A
C1209      C1220   1.412       .  A
C1210      C1218   1.386       .  A
C1210      C1221   1.411       .  A
C1211      H1223   1.082       .  S
C1212      H1224   1.082       .  S
C1213      H1225   1.082       .  S
C1214      H1226   1.082       .  S
C1215      H1227   1.082       .  S
C1216      H1228   1.082       .  S
C1217      H1229   1.082       .  S
C1218      H1230   1.082       .  S
C1219      C1293   1.481       .  S
C1220      C1300   1.483       .  S
C1221      C1310   1.483       .  S
C1222      C1280   1.485       .  S
Zn1233     O1237   1.953   1_554  S
Zn1233     O1238   1.998       .  S
Zn1233     O1242   2.012       .  S
Zn1233     O1249   2.003       .  S
Zn1234     O1237   1.960   1_554  S
Zn1234     O1239   2.018       .  S
Zn1234     O1241   2.023       .  S
Zn1234     O1245   2.012       .  S
Zn1235     O1431   1.958       .  S
Zn1235     O1240   2.027       .  S
Zn1235     O1243   2.012       .  S
Zn1235     O1246   2.017       .  S
Zn1236     O1431   1.963       .  S
Zn1236     O1244   2.024       .  S
Zn1236     O1247   2.021       .  S
Zn1236     O1248   2.022       .  S
O1237     Zn1429   1.958       .  S
O1237     Zn1430   1.963       .  S
O1238      C1250   1.271       .  A
O1239      C1251   1.274   1_554  A
O1240      C1446   1.274       .  A
O1241      C1250   1.274       .  A
O1242      C1252   1.273       .  A
O1243      C1445   1.272       .  A
O1244      C1253   1.275       .  A
O1245      C1254   1.272       .  A
O1246      C1253   1.274       .  A
O1247      C1448   1.274       .  A
O1248      C1449   1.273       .  A
O1249      C1255   1.273   1_554  A
C1250      C1277   1.466       .  S
C1251      C1320   1.486       .  S
C1251      O1437   1.272       .  A
C1252      C1330   1.484       .  S
C1252      O1434   1.274   1_554  A
C1253      C1275   1.470       .  S
C1254      C1353   1.486       .  S
C1254      O1441   1.274   1_554  A
C1255      C1343   1.490   1_556  S
C1255      O1442   1.273       .  A
Zn1256     O1260   1.956       .  S
Zn1256     O1261   2.016       .  S
Zn1256     O1265   2.021       .  S
Zn1256     O1272   2.013       .  S
Zn1257     O1260   1.960       .  S
Zn1257     O1262   2.003       .  S
Zn1257     O1264   2.018       .  S
Zn1257     O1268   2.010       .  S
Zn1258     O1260   1.960       .  S
Zn1258     O1263   2.019       .  S
Zn1258     O1266   2.018       .  S
Zn1258     O1269   2.016       .  S
Zn1259     O1260   1.955       .  S
Zn1259     O1267   2.014       .  S
Zn1259     O1270   2.012       .  S
Zn1259     O1271   2.017       .  S
O1261      C1273   1.273       .  A
O1262      C1274   1.273       .  A
O1263      C1275   1.274       .  A
O1264      C1273   1.274       .  A
O1265      C1275   1.274       .  A
O1266      C1274   1.272       .  A
O1267      C1276   1.272       .  A
O1268      C1277   1.272       .  A
O1269      C1276   1.274       .  A
O1270      C1277   1.273       .  A
O1271      C1278   1.272       .  A
O1272      C1278   1.274       .  A
C1273      C1313   1.483       .  S
C1274      C1283   1.489       .  S
C1276      C1290   1.484       .  S
C1278      C1303   1.488       .  S
C1279      C1280   1.401       .  A
C1279      C1284   1.399       .  A
C1279      H1286   1.084       .  S
C1280      C1281   1.406       .  A
C1281      C1282   1.395       .  A
C1281     Br1288   1.920       .  S
C1282      C1283   1.409       .  A
C1282      H1287   1.083       .  S
C1283      C1284   1.419       .  A
C1284     Br1285   1.921       .  S
C1289      C1290   1.407       .  A
C1289      C1294   1.397       .  A
C1289      H1296   1.083       .  S
C1290      C1291   1.417       .  A
C1291      C1292   1.400       .  A
C1291     Br1298   1.922       .  S
C1292      C1293   1.400       .  A
C1292      H1297   1.084       .  S
C1293      C1294   1.404       .  A
C1294     Br1295   1.919       .  S
C1299      C1300   1.400       .  A
C1299      C1304   1.399       .  A
C1299      H1306   1.084       .  S
C1300      C1301   1.405       .  A
C1301      C1302   1.397       .  A
C1301     Br1308   1.920       .  S
C1302      C1303   1.409       .  A
C1302      H1307   1.083       .  S
C1303      C1304   1.418       .  A
C1304     Br1305   1.922       .  S
C1309      C1310   1.400       .  A
C1309      C1314   1.399       .  A
C1309      H1316   1.084       .  S
C1310      C1311   1.405       .  A
C1311      C1312   1.399       .  A
C1311     Br1318   1.919       .  S
C1312      C1313   1.408       .  A
C1312      H1317   1.083       .  S
C1313      C1314   1.416       .  A
C1314     Br1315   1.922       .  S
C1319      C1320   1.408   1_554  A
C1319      C1324   1.398       .  A
C1319      H1326   1.083       .  S
C1320      C1515   1.417       .  A
C1321      C1514   1.417       .  A
C1321      C1322   1.399       .  A
C1321     Br1328   1.920       .  S
C1322      C1517   1.399       .  A
C1322      H1327   1.084       .  S
C1323      C1516   1.399   1_554  A
C1323      C1324   1.405       .  A
C1324     Br1325   1.917       .  S
C1329      C1330   1.409       .  A
C1329      C1334   1.398       .  A
C1329      H1336   1.083       .  S
C1330      C1525   1.415   1_554  A
C1331      C1524   1.415       .  A
C1331      C1332   1.399       .  A
C1331     Br1338   1.921       .  S
C1332      C1527   1.400       .  A
C1332      H1337   1.084       .  S
C1333      C1526   1.400   1_554  A
C1333      C1334   1.404       .  A
C1334     Br1335   1.919       .  S
C1339      C1534   1.401       .  A
C1339      C1344   1.399       .  A
C1339      H1346   1.084       .  S
C1340      C1533   1.401   1_554  A
C1340      C1341   1.404       .  A
C1341      C1342   1.397       .  A
C1341     Br1348   1.920       .  S
C1342      C1343   1.411       .  A
C1342      H1347   1.083       .  S
C1343      C1538   1.419   1_554  A
C1344      C1537   1.419       .  A
C1344     Br1345   1.923       .  S
C1349      C1350   1.399       .  A
C1349      C1354   1.398       .  A
C1349      H1356   1.084       .  S
C1350      C1545   1.405   1_554  A
C1351      C1544   1.405       .  A
C1351      C1352   1.399       .  A
C1351     Br1358   1.919       .  S
C1352      C1547   1.409       .  A
C1352      H1357   1.083       .  S
C1353      C1546   1.409   1_554  A
C1353      C1354   1.418       .  A
C1354     Br1355   1.922       .  S
N1359      H1391   1.039       .  S
N1359      C1363   1.352       .  A
N1360      C1368   1.351   1_455  A
N1361      H1392   1.038       .  S
N1361      C1365   1.351       .  A
N1362      C1370   1.351       .  A
C1363      C1371   1.387       .  A
C1363      C1379   1.414       .  A
C1364      C1380   1.414       .  A
C1364      C1372   1.387       .  A
C1365      C1373   1.387       .  A
C1365      C1382   1.412       .  A
C1366      C1381   1.411       .  A
C1366      C1374   1.386       .  A
C1367      C1379   1.411       .  A
C1367      C1375   1.386       .  A
C1368      C1382   1.414       .  A
C1368      C1376   1.387       .  A
C1369      C1377   1.386       .  A
C1369      C1380   1.411       .  A
C1370      C1378   1.386       .  A
C1370      C1381   1.411       .  A
C1371      H1383   1.082       .  S
C1372      H1384   1.082       .  S
C1373      H1385   1.082       .  S
C1374      H1386   1.082       .  S
C1375      H1387   1.082       .  S
C1376      H1388   1.082       .  S
C1377      H1389   1.082       .  S
C1378      H1390   1.082       .  S
C1379      C1544   1.483       .  S
C1380      C1517   1.484       .  S
C1381      C1527   1.481       .  S
C1382      C1534   1.484       .  S
N1393      H1425   1.039       .  S
N1393      C1397   1.352       .  A
N1394      C1402   1.349       .  A
N1395      H1426   1.040       .  S
N1395      C1399   1.352       .  A
N1396      C1404   1.350       .  A
C1397      C1405   1.386       .  A
C1397      C1413   1.411       .  A
C1398      C1414   1.413       .  A
C1398      C1406   1.387       .  A
C1399      C1407   1.387       .  A
C1399      C1416   1.414       .  A
C1400      C1415   1.412       .  A
C1400      C1408   1.386       .  A
C1401      C1413   1.409       .  A
C1401      C1409   1.385       .  A
C1402      C1416   1.411       .  A
C1402      C1410   1.387       .  A
C1403      C1411   1.387       .  A
C1403      C1414   1.412       .  A
C1404      C1412   1.386       .  A
C1404      C1415   1.411       .  A
C1405      H1417   1.082       .  S
C1406      H1418   1.082       .  S
C1407      H1419   1.082       .  S
C1408      H1420   1.082       .  S
C1409      H1421   1.082       .  S
C1410      H1422   1.082       .  S
C1411      H1423   1.082       .  S
C1412      H1424   1.082       .  S
C1413      C1487   1.481       .  S
C1414      C1494   1.483       .  S
C1415      C1504   1.483       .  S
C1416      C1474   1.485       .  S
Zn1427     O1431   1.953       .  S
Zn1427     O1432   1.998       .  S
Zn1427     O1436   2.012       .  S
Zn1427     O1443   2.003       .  S
Zn1428     O1431   1.960       .  S
Zn1428     O1433   2.018       .  S
Zn1428     O1435   2.023       .  S
Zn1428     O1439   2.012       .  S
Zn1429     O1434   2.026       .  S
Zn1429     O1437   2.012       .  S
Zn1429     O1440   2.017       .  S
Zn1430     O1438   2.024       .  S
Zn1430     O1441   2.021       .  S
Zn1430     O1442   2.022       .  S
O1432      C1444   1.271       .  A
O1433      C1445   1.274       .  A
O1435      C1444   1.274       .  A
O1436      C1446   1.273       .  A
O1438      C1447   1.275       .  A
O1439      C1448   1.272       .  A
O1440      C1447   1.274       .  A
O1443      C1449   1.273       .  A
C1444      C1471   1.466       .  S
C1445      C1514   1.486       .  S
C1446      C1524   1.484       .  S
C1447      C1469   1.470       .  S
C1448      C1547   1.486       .  S
C1449      C1537   1.490       .  S
Zn1450     O1454   1.956       .  S
Zn1450     O1455   2.016       .  S
Zn1450     O1459   2.021       .  S
Zn1450     O1466   2.013       .  S
Zn1451     O1454   1.960       .  S
Zn1451     O1456   2.003       .  S
Zn1451     O1458   2.018       .  S
Zn1451     O1462   2.010       .  S
Zn1452     O1454   1.960       .  S
Zn1452     O1457   2.019       .  S
Zn1452     O1460   2.018       .  S
Zn1452     O1463   2.016       .  S
Zn1453     O1454   1.955       .  S
Zn1453     O1461   2.014       .  S
Zn1453     O1464   2.012       .  S
Zn1453     O1465   2.017       .  S
O1455      C1467   1.273       .  A
O1456      C1468   1.273       .  A
O1457      C1469   1.274       .  A
O1458      C1467   1.274       .  A
O1459      C1469   1.274       .  A
O1460      C1468   1.272       .  A
O1461      C1470   1.272       .  A
O1462      C1471   1.272       .  A
O1463      C1470   1.274       .  A
O1464      C1471   1.273       .  A
O1465      C1472   1.272       .  A
O1466      C1472   1.274       .  A
C1467      C1507   1.483       .  S
C1468      C1477   1.489       .  S
C1470      C1484   1.484       .  S
C1472      C1497   1.488       .  S
C1473      C1474   1.401       .  A
C1473      C1478   1.399       .  A
C1473      H1480   1.084       .  S
C1474      C1475   1.406       .  A
C1475      C1476   1.395       .  A
C1475     Br1482   1.920       .  S
C1476      C1477   1.409       .  A
C1476      H1481   1.083       .  S
C1477      C1478   1.419       .  A
C1478     Br1479   1.921       .  S
C1483      C1484   1.407       .  A
C1483      C1488   1.397       .  A
C1483      H1490   1.083       .  S
C1484      C1485   1.417       .  A
C1485      C1486   1.400       .  A
C1485     Br1492   1.922       .  S
C1486      C1487   1.400       .  A
C1486      H1491   1.084       .  S
C1487      C1488   1.404       .  A
C1488     Br1489   1.919       .  S
C1493      C1494   1.400       .  A
C1493      C1498   1.399       .  A
C1493      H1500   1.084       .  S
C1494      C1495   1.405       .  A
C1495      C1496   1.397       .  A
C1495     Br1502   1.920       .  S
C1496      C1497   1.409       .  A
C1496      H1501   1.083       .  S
C1497      C1498   1.418       .  A
C1498     Br1499   1.922       .  S
C1503      C1504   1.400       .  A
C1503      C1508   1.399       .  A
C1503      H1510   1.084       .  S
C1504      C1505   1.405       .  A
C1505      C1506   1.399       .  A
C1505     Br1512   1.919       .  S
C1506      C1507   1.408       .  A
C1506      H1511   1.083       .  S
C1507      C1508   1.416       .  A
C1508     Br1509   1.922       .  S
C1513      C1514   1.408       .  A
C1513      C1518   1.398       .  A
C1513      H1520   1.083       .  S
C1515      C1516   1.399       .  A
C1515     Br1522   1.920       .  S
C1516      H1521   1.084       .  S
C1517      C1518   1.405       .  A
C1518     Br1519   1.917       .  S
C1523      C1524   1.409       .  A
C1523      C1528   1.398       .  A
C1523      H1530   1.083       .  S
C1525      C1526   1.399       .  A
C1525     Br1532   1.921       .  S
C1526      H1531   1.084       .  S
C1527      C1528   1.404       .  A
C1528     Br1529   1.919       .  S
C1533      C1538   1.399       .  A
C1533      H1540   1.084       .  S
C1534      C1535   1.404       .  A
C1535      C1536   1.397       .  A
C1535     Br1542   1.920       .  S
C1536      C1537   1.411       .  A
C1536      H1541   1.083       .  S
C1538     Br1539   1.923       .  S
C1543      C1544   1.399       .  A
C1543      C1548   1.398       .  A
C1543      H1550   1.084       .  S
C1545      C1546   1.399       .  A
C1545     Br1552   1.919       .  S
C1546      H1551   1.083       .  S
C1547      C1548   1.418       .  A
C1548     Br1549   1.922       .  S
