geometry optimzed in LAMMPS
_audit_creation_date              2020-11-30 
_audit_creation_method            'lammps2cif' 
_symmetry_space_group_name_H-M    'P1' 
_symmetry_Int_Tables_number       1 
_symmetry_cell_setting            triclinic 
loop_ 
_symmetry_equiv_pos_as_xyz 
  x,y,z 
_cell_length_a                    40.95580917 
_cell_length_b                    40.88904613232573 
_cell_length_c                    27.83996860838912 
_cell_angle_alpha                 90.09442550069097 
_cell_angle_beta                  89.98869265274162 
_cell_angle_gamma                 89.69514046236323 
loop_ 
_atom_site_label 
_atom_site_type_symbol 
_atom_site_fract_x 
_atom_site_fract_y 
_atom_site_fract_z 
_atom_site_charge 
C1          C  0.50214541  0.28407610  0.25881020     0.03500
C2          C  0.51866149  0.26633463  0.22305650    -0.12600
C3          C  0.52109503  0.23210986  0.22529137     0.01000
C4          C  0.50611062  0.21551754  0.26352611    -0.11200
C5          C  0.48883055  0.23283954  0.29903585     0.03500
C6          C  0.48712950  0.26714487  0.29661842    -0.10600
H7          H  0.52949290  0.27929307  0.19317131     0.09100
H8          H  0.50727887  0.18906038  0.26512089     0.06600
H9          H  0.47353588  0.28059033  0.32366674     0.06500
N10         N  0.53401080  0.54482253  0.24617254    -0.36200
N11         N  0.53422166  0.47359165  0.24465058    -0.56800
N12         N  0.46282872  0.47400857  0.23813398    -0.36200
N13         N  0.46271972  0.54540272  0.24596244    -0.56800
C14         C  0.56617468  0.53909037  0.25363202     0.27400
C15         C  0.52843778  0.57692222  0.25483544     0.27400
C16         C  0.46818503  0.44161824  0.24465966     0.27400
C17         C  0.43045382  0.47954405  0.24392939     0.27400
C18         C  0.56676156  0.47845843  0.24079301     0.36000
C19         C  0.52930968  0.44114453  0.23900632     0.36000
C20         C  0.46772346  0.57804243  0.24408082     0.36000
C21         C  0.43031597  0.54082699  0.23987324     0.36000
C22         C  0.58131084  0.56811684  0.26643248    -0.21500
C23         C  0.55752600  0.59188236  0.26741173    -0.21500
C24         C  0.43863908  0.42623303  0.25317422    -0.21500
C25         C  0.41487748  0.45005545  0.25239999    -0.21500
C26         C  0.58262208  0.44885747  0.23318418    -0.22600
C27         C  0.55893186  0.42526124  0.23203777    -0.22600
C28         C  0.43827567  0.59428970  0.23748294    -0.22600
C29         C  0.41459163  0.57076624  0.23510244    -0.22600
C30         C  0.58266030  0.50886934  0.24688174    -0.17900
C31         C  0.49827182  0.59363609  0.24962786    -0.17900
C32         C  0.41429553  0.51025805  0.24121401    -0.17900
C33         C  0.49876961  0.42523666  0.24244791    -0.17900
H34         H  0.60691092  0.57201730  0.27393311     0.15000
H35         H  0.56134138  0.61739856  0.27603663     0.15000
H36         H  0.43453090  0.40046530  0.25943584     0.15000
H37         H  0.38905687  0.44602885  0.25792241     0.15000
H38         H  0.60860144  0.44458491  0.22948641     0.13300
H39         H  0.56308664  0.39932085  0.22694593     0.13300
H40         H  0.43418359  0.62040046  0.23497277     0.13300
H41         H  0.38871186  0.57527495  0.23060142     0.13300
H42         H  0.51763895  0.52867980  0.23085937     0.26500
H43         H  0.47983435  0.49092044  0.22665906     0.26500
C44         C  0.72432210  0.51227109  0.24692765     0.03500
C45         C  0.74140495  0.52981208  0.21146078    -0.12600
C46         C  0.77576132  0.52968077  0.21027098     0.01000
C47         C  0.79297557  0.51191986  0.24514566    -0.11200
C48         C  0.77642360  0.49396290  0.28019006     0.03500
C49         C  0.74220083  0.49407465  0.28077185    -0.10600
H50         H  0.72795364  0.54329370  0.18446309     0.09100
H51         H  0.81944231  0.51187257  0.24489811     0.06600
H52         H  0.72955441  0.47981919  0.30761655     0.06500
C53         C  0.50262277  0.73490782  0.24583671     0.03500
C54         C  0.51968930  0.75226841  0.28117721    -0.12600
C55         C  0.52145398  0.78643282  0.27917088     0.01000
C56         C  0.50527177  0.80344360  0.24240431    -0.11200
C57         C  0.48715701  0.78645830  0.20752073     0.03500
C58         C  0.48646773  0.75208849  0.20911933    -0.10600
H59         H  0.53218118  0.73918245  0.30966107     0.09100
H60         H  0.50617078  0.82992352  0.24172249     0.06600
H61         H  0.47323833  0.73862536  0.18188154     0.06500
C62         C  0.27280668  0.50926597  0.24885761     0.03500
C63         C  0.25630188  0.52592161  0.28588829    -0.12600
C64         C  0.22226081  0.52403988  0.29024010     0.01000
C65         C  0.20442153  0.50564372  0.25686767    -0.11200
C66         C  0.22025942  0.48993983  0.21830442     0.03500
C67         C  0.25450968  0.49122152  0.21544810    -0.10600
H68         H  0.26991016  0.54039118  0.31156248     0.09100
H69         H  0.17815245  0.50406721  0.26063292     0.06600
H70         H  0.26692885  0.47815730  0.18696030     0.06500
C71         C  0.49836861  0.73897808  0.74388570     0.03500
C72         C  0.51596932  0.75542444  0.70839914    -0.12600
C73         C  0.51831327  0.78961400  0.70917108     0.01000
C74         C  0.50277798  0.80731777  0.74621758    -0.11200
C75         C  0.48459229  0.79110454  0.78202241     0.03500
C76         C  0.48212602  0.75684304  0.77962647    -0.10600
H77         H  0.52772857  0.74152551  0.68003158     0.09100
H78         H  0.50528742  0.83365914  0.74729530     0.06600
H79         H  0.46696884  0.74375413  0.80486113     0.06500
N80         N  0.46141269  0.47871358  0.76210315    -0.36200
N81         N  0.45964715  0.54918669  0.74787818    -0.56800
N82         N  0.53086054  0.55083788  0.75621066    -0.36200
N83         N  0.53275429  0.48024469  0.76423480    -0.56800
C84         C  0.42927689  0.48286368  0.75219309     0.27400
C85         C  0.46807154  0.44629853  0.75905275     0.27400
C86         C  0.52433589  0.58142024  0.74032414     0.27400
C87         C  0.56294837  0.54495379  0.74784089     0.27400
C88         C  0.42722430  0.54401464  0.75254063     0.36000
C89         C  0.46384785  0.58193635  0.74941585     0.36000
C90         C  0.52811980  0.44838377  0.77500858     0.36000
C91         C  0.56456692  0.48663422  0.77298022     0.36000
C92         C  0.41515021  0.45258692  0.74417757    -0.21500
C93         C  0.43961975  0.42959518  0.74811697    -0.21500
C94         C  0.55253307  0.59527462  0.72210776    -0.21500
C95         C  0.57678928  0.57213894  0.72624500    -0.21500
C96         C  0.41074642  0.57367381  0.75561766    -0.22600
C97         C  0.43396666  0.59765931  0.75415642    -0.22600
C98         C  0.55709252  0.43442948  0.79073868    -0.22600
C99         C  0.58009141  0.45873213  0.78999302    -0.22600
C100        C  0.41201890  0.51302143  0.75212709    -0.17900
C101        C  0.49871160  0.43110213  0.76781979    -0.17900
C102        C  0.58036956  0.51629356  0.76109016    -0.17900
C103        C  0.49408449  0.59795007  0.74412171    -0.17900
H104        H  0.38982013  0.44745913  0.73629908     0.15000
H105        H  0.43663982  0.40346117  0.74392265     0.15000
H106        H  0.55527738  0.61950607  0.70707915     0.15000
H107        H  0.60184016  0.57517508  0.71481953     0.15000
H108        H  0.38469020  0.57771551  0.75855244     0.13300
H109        H  0.42928184  0.62370839  0.75580527     0.13300
H110        H  0.56126045  0.40929748  0.80135284     0.13300
H111        H  0.60550793  0.45592261  0.79984614     0.13300
H112        H  0.47714112  0.49657431  0.77454625     0.26500
H113        H  0.51524660  0.53647973  0.77655844     0.26500
C114        C  0.27049700  0.51208166  0.74997281     0.03500
C115        C  0.25254092  0.53001847  0.71582232    -0.12600
C116        C  0.21821807  0.53128673  0.71793624     0.01000
C117        C  0.20206825  0.51508196  0.75527642    -0.11200
C118        C  0.21955709  0.49678615  0.78911715     0.03500
C119        C  0.25367805  0.49511879  0.78611062    -0.10600
H120        H  0.26525533  0.54322479  0.68785914     0.09100
H121        H  0.17573194  0.51659838  0.75809178     0.06600
H122        H  0.26716079  0.48090575  0.81235758     0.06500
C123        C  0.49902198  0.28947240  0.75969859     0.03500
C124        C  0.48195812  0.27312153  0.72293365    -0.12600
C125        C  0.48037983  0.23868952  0.72210602     0.01000
C126        C  0.49572521  0.22090052  0.75901765    -0.11200
C127        C  0.51337223  0.23684800  0.79518071     0.03500
C128        C  0.51487143  0.27109483  0.79535053    -0.10600
H129        H  0.46990385  0.28719903  0.69511252     0.09100
H130        H  0.49429896  0.19445768  0.75940471     0.06600
H131        H  0.52842444  0.28349209  0.82336762     0.06500
C132        C  0.72281102  0.51740674  0.74538621     0.03500
C133        C  0.74192876  0.53000110  0.78322565    -0.12600
C134        C  0.77612338  0.53075839  0.78017598     0.01000
C135        C  0.79178897  0.51620366  0.74088649    -0.11200
C136        C  0.77348244  0.50277402  0.70328997     0.03500
C137        C  0.73926656  0.50524056  0.70446821    -0.10600
H138        H  0.73061071  0.53912714  0.81571079     0.09100
H139        H  0.81823108  0.51538243  0.73957706     0.06600
H140        H  0.72587986  0.49754873  0.67304459     0.06500
C141        C  0.99729411  0.78771278  0.74777322     0.03500
C142        C  0.01009908  0.77125660  0.70746120    -0.12600
C143        C  0.01058933  0.73704137  0.70521724     0.01000
C144        C  0.99569037  0.71887515  0.74167157    -0.11200
C145        C  0.98174776  0.73475366  0.78141815     0.03500
C146        C  0.98335072  0.76896207  0.78479770    -0.10600
H147        H  0.01960545  0.78476349  0.67721161     0.09100
H148        H  0.99507135  0.69244340  0.73911365     0.06600
H149        H  0.97382451  0.78073462  0.81674822     0.06500
N150        N  0.02898489  0.04949582  0.75784065    -0.36200
N151        N  0.03040448  0.97869719  0.75643737    -0.56800
N152        N  0.95994870  0.97801436  0.75485579    -0.36200
N153        N  0.95851821  0.04869107  0.75258802    -0.56800
C154        C  0.06074040  0.04359701  0.74756097     0.27400
C155        C  0.02243189  0.08073438  0.74504862     0.27400
C156        C  0.96725118  0.94699482  0.74182608     0.27400
C157        C  0.92901528  0.98410147  0.74046269     0.27400
C158        C  0.06170575  0.98486677  0.76848827     0.36000
C159        C  0.02494420  0.94704891  0.76747336     0.36000
C160        C  0.96342664  0.08036216  0.76394549     0.36000
C161        C  0.92688083  0.04247923  0.76232476     0.36000
C162        C  0.07466883  0.07139657  0.72809518    -0.21500
C163        C  0.05038781  0.09479832  0.72611201    -0.21500
C164        C  0.94079126  0.93342287  0.71799570    -0.21500
C165        C  0.91641683  0.95676174  0.71779365    -0.21500
C166        C  0.07631111  0.95710176  0.78730977    -0.22600
C167        C  0.05285278  0.93319653  0.78729159    -0.22600
C168        C  0.93482915  0.09419923  0.78162899    -0.22600
C169        C  0.91149035  0.07023546  0.77993620    -0.22600
C170        C  0.07776900  0.01450378  0.75878892    -0.17900
C171        C  0.99260061  0.09734732  0.75403725    -0.17900
C172        C  0.91137506  0.01284449  0.75114168    -0.17900
C173        C  0.99608883  0.93010159  0.75515083    -0.17900
H174        H  0.09977689  0.07459240  0.71698685     0.15000
H175        H  0.05320503  0.11952665  0.71302023     0.15000
H176        H  0.93891414  0.90895817  0.70340586     0.15000
H177        H  0.89213036  0.95383953  0.70313311     0.15000
H178        H  0.10128211  0.95433477  0.79942749     0.13300
H179        H  0.05622904  0.90832473  0.79960362     0.13300
H180        H  0.93096344  0.11913185  0.79350253     0.13300
H181        H  0.88609081  0.07299289  0.78998062     0.13300
H182        H  0.01383559  0.03441551  0.77792694     0.26500
H183        H  0.97364903  0.99266583  0.77781861     0.26500
C184        C  0.21893258  0.01594349  0.75792387     0.03500
C185        C  0.23644080  0.99883718  0.79330749    -0.12600
C186        C  0.27071505  0.99880774  0.79327723     0.01000
C187        C  0.28742424  0.01661833  0.75794595    -0.11200
C188        C  0.27026796  0.03390320  0.72225506     0.03500
C189        C  0.23596611  0.03336270  0.72249216    -0.10600
H190        H  0.22337262  0.98533680  0.82064881     0.09100
H191        H  0.31388934  0.01666994  0.75788349     0.06600
H192        H  0.22246564  0.04619382  0.69482118     0.06500
C193        C  0.98880738  0.23990943  0.75745681     0.03500
C194        C  0.00001853  0.25816178  0.79707675    -0.12600
C195        C  0.00137546  0.29242265  0.79543025     0.01000
C196        C  0.98794618  0.30897237  0.75615407    -0.11200
C197        C  0.97470084  0.29141855  0.71771100     0.03500
C198        C  0.97626575  0.25718724  0.71771427    -0.10600
H199        H  0.00812198  0.24617971  0.82950357     0.09100
H200        H  0.98820541  0.33545946  0.75516625     0.06600
H201        H  0.96800756  0.24439461  0.68597302     0.06500
C202        C  0.77057529  0.01306626  0.74589989     0.03500
C203        C  0.75352712  0.99619783  0.71005340    -0.12600
C204        C  0.71926967  0.99516479  0.71041392     0.01000
C205        C  0.70210474  0.01263675  0.74596494    -0.11200
C206        C  0.71888230  0.03012528  0.78170301     0.03500
C207        C  0.75314888  0.02955455  0.78193642    -0.10600
H208        H  0.76703889  0.98347351  0.68220718     0.09100
H209        H  0.67565629  0.01236014  0.74611255     0.06600
H210        H  0.76639875  0.04186601  0.81029024     0.06500
C211        C  0.00021108  0.23613618  0.24885102     0.03500
C212        C  0.01262657  0.25463466  0.21044181    -0.12600
C213        C  0.01215996  0.28897081  0.21172259     0.01000
C214        C  0.99730828  0.30500898  0.25053154    -0.11200
C215        C  0.98373943  0.28707569  0.28838531     0.03500
C216        C  0.98586837  0.25282243  0.28783332    -0.10600
H217        H  0.02251125  0.24252207  0.17902007     0.09100
H218        H  0.99641917  0.33148306  0.25140741     0.06600
H219        H  0.97650824  0.23932836  0.31825335     0.06500
N220        N  0.96892450  0.04464888  0.24018461    -0.36200
N221        N  0.03884509  0.04552619  0.25215280    -0.56800
N222        N  0.03954258  0.97429314  0.25626967    -0.36200
N223        N  0.96960816  0.97372963  0.23950210    -0.56800
C224        C  0.97580555  0.07603277  0.22891167     0.27400
C225        C  0.93887597  0.03810930  0.22265945     0.27400
C226        C  0.07181512  0.98042494  0.25176303     0.27400
C227        C  0.03504716  0.94230374  0.24594742     0.27400
C228        C  0.03200794  0.07728674  0.26138244     0.36000
C229        C  0.06955742  0.04012125  0.26796947     0.36000
C230        C  0.93702360  0.97888948  0.24108493     0.36000
C231        C  0.97431024  0.94167659  0.24903682     0.36000
C232        C  0.95004381  0.08932483  0.20292689    -0.21500
C233        C  0.92647771  0.06549414  0.19967823    -0.21500
C234        C  0.08813213  0.95186352  0.23919198    -0.21500
C235        C  0.06495430  0.92773527  0.23589497    -0.21500
C236        C  0.05841272  0.09193550  0.28388585    -0.22600
C237        C  0.08240440  0.06847111  0.28733492    -0.22600
C238        C  0.92091996  0.94996049  0.25099978    -0.22600
C239        C  0.94453750  0.92630813  0.25564814    -0.22600
C240        C  0.00332366  0.09354961  0.24571593    -0.17900
C241        C  0.92153487  0.00889064  0.23049211    -0.17900
C242        C  0.00491677  0.92565118  0.24817126    -0.17900
C243        C  0.08703793  0.01068563  0.26135979    -0.17900
H244        H  0.94801466  0.11394383  0.18898916     0.15000
H245        H  0.90282729  0.06806822  0.18271619     0.15000
H246        H  0.11410340  0.94858909  0.23365877     0.15000
H247        H  0.06971875  0.90233769  0.22732666     0.15000
H248        H  0.06048640  0.11700740  0.29591748     0.13300
H249        H  0.10654919  0.07183628  0.30230191     0.13300
H250        H  0.89485521  0.94612805  0.25366619     0.13300
H251        H  0.94016255  0.90067302  0.26255513     0.13300
H252        H  0.98185669  0.03007535  0.26424582     0.26500
H253        H  0.02213214  0.99016663  0.27041193     0.26500
C254        C  0.78062281  0.00373275  0.23656062     0.03500
C255        C  0.76158830  0.02045685  0.20261384    -0.12600
C256        C  0.72743799  0.02131020  0.20651506     0.01000
C257        C  0.71231471  0.00514192  0.24495196    -0.11200
C258        C  0.73094528  0.98798215  0.27908765     0.03500
C259        C  0.76515610  0.98744023  0.27472905    -0.10600
H260        H  0.77343364  0.03343168  0.17357570     0.09100
H261        H  0.68598190  0.00612052  0.24857251     0.06600
H262        H  0.77976250  0.97477999  0.30137876     0.06500
C263        C  0.00094221  0.78446420  0.24534025     0.03500
C264        C  0.98226737  0.76792711  0.21079221    -0.12600
C265        C  0.98262573  0.73371606  0.20868328     0.01000
C266        C  0.00132982  0.71590313  0.24169318    -0.11200
C267        C  0.01916835  0.73196757  0.27758006     0.03500
C268        C  0.01869816  0.76630569  0.27930980    -0.10600
H269        H  0.96775706  0.78159918  0.18514236     0.09100
H270        H  0.00184819  0.68943664  0.23944455     0.06600
H271        H  0.03224510  0.77898562  0.30699923     0.06500
C272        C  0.22790578  0.01413915  0.25292283     0.03500
C273        C  0.24416937  0.99916652  0.21433181    -0.12600
C274        C  0.27848028  0.99848053  0.21223865     0.01000
C275        C  0.29634048  0.01392324  0.24907001    -0.11200
C276        C  0.28029302  0.03008971  0.28701534     0.03500
C277        C  0.24605133  0.02924036  0.28925149    -0.10600
H278        H  0.22997207  0.98766011  0.18623138     0.09100
H279        H  0.32275805  0.01333321  0.24846083     0.06600
H280        H  0.23338312  0.04060185  0.31916315     0.06500
O281        O  0.07083252  0.38974201  0.05176855    -0.72600
O282        O  0.12071467  0.43790665  0.94956123    -0.73500
O283        O  0.06931619  0.39098726  0.94995722    -0.62200
O284        O  0.12181912  0.43669967  0.05148730    -0.70600
O285        O  0.15875458  0.39702007  0.04885525    -0.70100
O286        O  0.10628407  0.35129288  0.94814295    -0.61400
O287        O  0.15720573  0.39773384  0.94732804    -0.73900
O288        O  0.10816127  0.35040901  0.04916972    -0.72700
Cu289      Cu  0.09438216  0.41529723  0.00068592     1.04600
Cu290      Cu  0.13383846  0.37278956  0.99823609     1.04300
C291        C  0.08183796  0.36224966  0.06669852     1.02400
C292        C  0.14696767  0.42543095  0.93241962     0.92800
C293        C  0.07936308  0.36355780  0.93336828     0.84900
C294        C  0.14853433  0.42404305  0.06652954     0.91200
O295        O  0.57563473  0.13429542  0.05611908    -0.72600
O296        O  0.62261378  0.08661858  0.95078918    -0.73500
O297        O  0.62490081  0.08500419  0.05266983    -0.62200
O298        O  0.57376124  0.13600243  0.95407794    -0.70600
O299        O  0.61244237  0.17366833  0.95356159    -0.70100
O300        O  0.66278120  0.12341310  0.05237611    -0.61400
O301        O  0.66104493  0.12449675  0.95054751    -0.73900
O302        O  0.61368007  0.17254244  0.05552266    -0.72700
Cu303      Cu  0.59788595  0.10915485  0.00346752     1.04600
Cu304      Cu  0.63878550  0.14984547  0.00305178     1.04300
C305        C  0.58710592  0.16105577  0.07254574     0.93600
C306        C  0.64919852  0.09796160  0.93378167     0.92800
C307        C  0.65207547  0.09617939  0.06810907     0.84900
C308        C  0.58529995  0.16280245  0.93779994     0.91200
O309        O  0.87609824  0.58648016  0.04681372    -0.72600
O310        O  0.92450147  0.63580818  0.94427030    -0.73500
O311        O  0.92440342  0.63622082  0.04595767    -0.62200
O312        O  0.87644940  0.58589710  0.94469519    -0.70600
O313        O  0.83797265  0.62416732  0.94453308    -0.70100
O314        O  0.88526442  0.67389568  0.04689062    -0.61400
O315        O  0.88571768  0.67373431  0.94518469    -0.73900
O316        O  0.83733100  0.62443558  0.04627441    -0.72700
Cu317      Cu  0.90173213  0.60975032  0.99550429     1.04600
Cu318      Cu  0.86023270  0.65032478  0.99571204     1.04300
C319        C  0.84895915  0.59767663  0.06276822     0.93600
C320        C  0.91265013  0.66271608  0.92845646     0.92800
C321        C  0.91260891  0.66301029  0.06227250     0.84900
C322        C  0.84958409  0.59726117  0.92826156     0.91200
O323        O  0.42342747  0.88910029  0.94475854    -0.72600
O324        O  0.37499955  0.93545409  0.04997828    -0.73500
O325        O  0.42535282  0.88681229  0.04686901    -0.62200
O326        O  0.37312170  0.93700915  0.94896010    -0.70600
O327        O  0.33642304  0.89742753  0.94721766    -0.70100
O328        O  0.38722996  0.84864833  0.04846978    -0.61400
O329        O  0.33683244  0.89733828  0.04896772    -0.73900
O330        O  0.38711937  0.84895520  0.94658427    -0.72700
Cu331      Cu  0.40054190  0.91337587  0.99769289     1.04600
Cu332      Cu  0.36061139  0.87168378  0.99781457     1.04300
C333        C  0.41307096  0.86163124  0.92939436     0.93600
C334        C  0.34779978  0.92439361  0.06527670     0.92800
C335        C  0.41460139  0.85971223  0.06325864     0.84900
C336        C  0.34635018  0.92537354  0.93290378     0.91200
O337        O  0.12523471  0.58464195  0.45314160    -0.72600
O338        O  0.07130353  0.63874696  0.54416818    -0.73500
O339        O  0.07594803  0.63332866  0.44311783    -0.62200
O340        O  0.12077935  0.59027985  0.55434435    -0.70600
O341        O  0.15900510  0.62836136  0.55282931    -0.70100
O342        O  0.11344054  0.67216005  0.44324560    -0.61400
O343        O  0.10961934  0.67681724  0.54456276    -0.73900
O344        O  0.16259968  0.62365905  0.45117007    -0.72700
Cu345      Cu  0.09700482  0.61040127  0.49874084     1.04600
Cu346      Cu  0.13748487  0.65157340  0.49795318     1.04300
C347        C  0.15228338  0.59573511  0.43732392     0.93600
C348        C  0.08195316  0.66629823  0.55893564     0.92800
C349        C  0.08741059  0.65981598  0.42582547     0.84900
C350        C  0.14721624  0.60231407  0.57099541     0.91200
O351        O  0.38255081  0.17674331  0.55803446    -0.72600
O352        O  0.33769760  0.12564600  0.45383225    -0.73500
O353        O  0.33348545  0.12744705  0.55606916    -0.62200
O354        O  0.38638369  0.17448842  0.45631563    -0.70600
O355        O  0.42499905  0.13647581  0.46051800    -0.70100
O356        O  0.37156973  0.08890388  0.55952711    -0.61400
O357        O  0.37602568  0.08736594  0.45727591    -0.73900
O358        O  0.42071448  0.13833486  0.56225560    -0.72700
Cu359      Cu  0.35869095  0.15235119  0.50595953     1.04600
Cu360      Cu  0.39961819  0.11139864  0.51016410     1.04300
C361        C  0.40910150  0.16587032  0.57625507     0.93600
C362        C  0.34982122  0.09868729  0.43851203     0.92800
C363        C  0.34411595  0.10052443  0.57355628     0.84900
C364        C  0.41394198  0.16305601  0.44250735     0.91200
O365        O  0.88064840  0.35074624  0.55007067    -0.72600
O366        O  0.83597851  0.39799155  0.44326377    -0.73500
O367        O  0.88355676  0.34777042  0.44891862    -0.62200
O368        O  0.83311291  0.40142124  0.54460132    -0.70600
O369        O  0.87245164  0.43836419  0.54472765    -0.70100
O370        O  0.92271871  0.38489914  0.44911533    -0.61400
O371        O  0.87505285  0.43527141  0.44350249    -0.73900
O372        O  0.92008820  0.38759735  0.55028991    -0.72700
Cu373      Cu  0.85696630  0.37319807  0.49676204     1.04600
Cu374      Cu  0.89894670  0.41282212  0.49694288     1.04300
C375        C  0.90760704  0.36134001  0.56682459     0.93600
C376        C  0.84826982  0.42426450  0.42660335     0.92800
C377        C  0.91119001  0.35784200  0.43381623     0.84900
C378        C  0.84464004  0.42861242  0.55953066     0.91200
O379        O  0.57759871  0.88352923  0.53995201    -0.72600
O380        O  0.63093433  0.93239405  0.44199818    -0.73500
O381        O  0.58159076  0.88326464  0.43857435    -0.62200
O382        O  0.62589205  0.93271692  0.54345480    -0.70600
O383        O  0.66432157  0.89456300  0.54776837    -0.70100
O384        O  0.62039540  0.84511863  0.44060842    -0.61400
O385        O  0.66931990  0.89409801  0.44574921    -0.73900
O386        O  0.61590607  0.84518359  0.54304628    -0.72700
Cu387      Cu  0.60270765  0.90928138  0.49075381     1.04600
Cu388      Cu  0.64383538  0.86837603  0.49438436     1.04300
C389        C  0.58847237  0.85668364  0.55736978     0.93600
C390        C  0.65869692  0.92110619  0.42860924     0.92800
C391        C  0.59373127  0.85641138  0.42327491     0.84900
C392        C  0.65199650  0.92160412  0.56251539     0.91200
C393        C  0.33321132  0.08090382  0.39870998    -0.05100
C394        C  0.30637978  0.09570450  0.37572117    -0.32500
C395        C  0.28966560  0.07979052  0.33875392     0.36700
C396        C  0.29908246  0.04803747  0.32435985    -0.05400
C397        C  0.32644347  0.03348060  0.34619269    -0.32400
C398        C  0.34346906  0.04958035  0.38297659     0.36600
H399        H  0.29826680  0.11994705  0.38618310     0.17000
O400        O  0.26426826  0.09574674  0.31660360    -0.59900
H401        H  0.33428636  0.00920710  0.33542654     0.17000
O402        O  0.37004686  0.03436893  0.40312059    -0.60000
H403        H  0.36104063  0.02039166  0.42895702     0.44000
H404        H  0.27386202  0.10558978  0.28732138     0.44000
C405        C  0.29546167  0.98050399  0.17268535    -0.05100
C406        C  0.28329278  0.95022181  0.15686562    -0.32500
C407        C  0.29954092  0.93195198  0.12150118     0.36700
C408        C  0.32904033  0.94346880  0.10164898    -0.05400
C409        C  0.34062986  0.97422027  0.11639604    -0.32400
C410        C  0.32393296  0.99283946  0.15082558     0.36600
H411        H  0.26135952  0.94018404  0.17264949     0.17000
O412        O  0.28611965  0.90300907  0.10655623    -0.59900
H413        H  0.36269369  0.98419084  0.10089283     0.17000
O414        O  0.33553494  0.02328278  0.16222125    -0.60000
H415        H  0.32304979  0.03865858  0.14162198     0.44000
H416        H  0.29407991  0.88638591  0.12972172     0.44000
C417        C  0.03752573  0.71273021  0.31383719    -0.05100
C418        C  0.02277823  0.68544032  0.33517993    -0.32500
C419        C  0.03886596  0.66750609  0.37081345     0.36700
C420        C  0.07036180  0.67681822  0.38602571    -0.05400
C421        C  0.08540164  0.70365960  0.36375929    -0.32400
C422        C  0.06943040  0.72133746  0.32777073     0.36600
H423        H  0.99827199  0.67836895  0.32502046     0.17000
O424        O  0.02331502  0.64117152  0.39072224    -0.59900
H425        H  0.10973648  0.71109734  0.37421491     0.17000
O426        O  0.08539786  0.74684312  0.30630682    -0.60000
H427        H  0.09516572  0.73748455  0.27669311     0.44000
H428        H  0.00954375  0.65040523  0.41678440     0.44000
C429        C  0.96442432  0.71634759  0.17090630    -0.05100
C430        C  0.98151693  0.69635206  0.13855072    -0.32500
C431        C  0.96496896  0.67898398  0.10290761     0.36700
C432        C  0.93070193  0.68150572  0.09920589    -0.05400
C433        C  0.91364734  0.70189858  0.13138443    -0.32400
C434        C  0.93027095  0.71908592  0.16727645     0.36600
H435        H  0.00787442  0.69438316  0.14077687     0.17000
O436        O  0.98267005  0.66068944  0.07068414    -0.59900
H437        H  0.88730511  0.70403969  0.12931297     0.17000
O438        O  0.91292778  0.73802980  0.19911158    -0.60000
H439        H  0.90826432  0.72346503  0.22669999     0.44000
H440        H  0.98746423  0.63981806  0.08742336     0.44000
C441        C  0.67851571  0.93898611  0.39247823    -0.05100
C442        C  0.70179340  0.92189163  0.36483249    -0.32500
C443        C  0.71946059  0.93764270  0.32851987     0.36700
C444        C  0.71433738  0.97116804  0.31951453    -0.05400
C445        C  0.69194613  0.98853230  0.34815858    -0.32400
C446        C  0.67417167  0.97279687  0.38436162     0.36600
H447        H  0.70567362  0.89594191  0.37037998     0.17000
O448        O  0.74091705  0.91978709  0.30104935    -0.59900
H449        H  0.68812822  0.01446448  0.34228775     0.17000
O450        O  0.65333498  0.99092923  0.41247205    -0.60000
H451        H  0.63315744  0.99349997  0.39312540     0.44000
H452        H  0.72794644  0.91199930  0.27325269     0.44000
C453        C  0.70780823  0.04024288  0.17132477    -0.05100
C454        C  0.71662191  0.07250954  0.16052291    -0.32500
C455        C  0.69886233  0.09096220  0.12716164     0.36700
C456        C  0.67136098  0.07734238  0.10402667    -0.05400
C457        C  0.66254814  0.04499235  0.11504679    -0.32400
C458        C  0.68061721  0.02645068  0.14803785     0.36600
H459        H  0.73731812  0.08361269  0.17835065     0.17000
O460        O  0.70826552  0.12254630  0.11844516    -0.59900
H461        H  0.64181907  0.03375558  0.09752710     0.17000
O462        O  0.67181490  0.99466639  0.15656769    -0.60000
H463        H  0.68574191  0.98131079  0.13487905     0.44000
H464        H  0.72591454  0.12081001  0.09415598     0.44000
C465        C  0.12320566  0.01221754  0.26063251    -0.05100
C466        C  0.13874094  0.02637275  0.22097568    -0.32500
C467        C  0.17282194  0.02706322  0.21804038     0.36700
C468        C  0.19183436  0.01387683  0.25548915    -0.05400
C469        C  0.17623311  0.00028979  0.29569426    -0.32400
C470        C  0.14209988  0.99930870  0.29834217     0.36600
H471        H  0.12432297  0.03661533  0.19197954     0.17000
O472        O  0.18738471  0.04166392  0.17928002    -0.59900
H473        H  0.19059093  0.99003557  0.32473847     0.17000
O474        O  0.12741711  0.98534010  0.33747940    -0.60000
H475        H  0.12214345  0.00384291  0.35926131     0.44000
H476        H  0.18537301  0.02570306  0.15259433     0.44000
C477        C  0.00520492  0.88943128  0.24796794    -0.05100
C478        C  0.00962599  0.87257774  0.20461266    -0.32500
C479        C  0.00842239  0.83839933  0.20328468     0.36700
C480        C  0.00230856  0.82066899  0.24576649    -0.05400
C481        C  0.99818677  0.83772219  0.28924010    -0.32400
C482        C  0.99983925  0.87184693  0.29055202     0.36600
H483        H  0.01408631  0.88601596  0.17176322     0.17000
O484        O  0.01474735  0.82246975  0.16083461    -0.59900
H485        H  0.99337572  0.82455361  0.32220671     0.17000
O486        O  0.99525062  0.88791988  0.33332059    -0.60000
H487        H  0.01752924  0.89200237  0.34583744     0.44000
H488        H  0.99529736  0.82643778  0.14039254     0.44000
C489        C  0.81673180  0.00525872  0.23378209    -0.05100
C490        C  0.83432073  0.01696383  0.27343786    -0.32500
C491        C  0.86834003  0.01933802  0.27173993     0.36700
C492        C  0.88534023  0.00988549  0.23007146    -0.05400
C493        C  0.86794330  0.99826530  0.19023590    -0.32400
C494        C  0.83376941  0.99617520  0.19170427     0.36600
H495        H  0.82158411  0.02441516  0.30580433     0.17000
O496        O  0.88491111  0.03052247  0.31124270    -0.59900
H497        H  0.88094837  0.99027978  0.15837907     0.17000
O498        O  0.81735645  0.98371957  0.15286699    -0.60000
H499        H  0.81748279  0.00138234  0.12849476     0.44000
H500        H  0.89020819  0.01068839  0.33022556     0.44000
C501        C  0.96622301  0.30407267  0.32772873    -0.05100
C502        C  0.93456697  0.29413264  0.33993656    -0.32500
C503        C  0.91653797  0.31089008  0.37492444     0.36700
C504        C  0.93005192  0.33838041  0.39825106    -0.05400
C505        C  0.96211952  0.34774284  0.38672010    -0.32400
C506        C  0.98019140  0.33075961  0.35205447     0.36600
H507        H  0.92342280  0.27371717  0.32138685     0.17000
O508        O  0.88532094  0.30084639  0.38454450    -0.59900
H509        H  0.97332937  0.36841222  0.40451983     0.17000
O510        O  0.01148172  0.34049895  0.34220791    -0.60000
H511        H  0.02567709  0.32606453  0.36186784     0.44000
H512        H  0.88771997  0.28322576  0.40874897     0.44000
C513        C  0.06405158  0.34375599  0.10419132    -0.05100
C514        C  0.03196718  0.35276325  0.11676204    -0.32500
C515        C  0.01450734  0.33500553  0.15117458     0.36700
C516        C  0.02916497  0.30788262  0.17396240    -0.05400
C517        C  0.06117678  0.29900222  0.16156908    -0.32400
C518        C  0.07863985  0.31665896  0.12738036     0.36600
H519        H  0.02015207  0.37336530  0.09943575     0.17000
O520        O  0.98303277  0.34411937  0.16172903    -0.59900
H521        H  0.07301916  0.27852651  0.17921943     0.17000
O522        O  0.11006801  0.30715658  0.11725320    -0.60000
H523        H  0.12392759  0.31979523  0.13975440     0.44000
H524        H  0.96910623  0.33000095  0.14133774     0.44000
C525        C  0.00149333  0.19957636  0.24797848    -0.05100
C526        C  0.97579949  0.18149421  0.26825543    -0.32500
C527        C  0.97642398  0.14724721  0.26859807     0.36700
C528        C  0.00221585  0.13015073  0.24613732    -0.05400
C529        C  0.02759773  0.14810168  0.22503663    -0.32400
C530        C  0.02812384  0.18226856  0.22762209     0.36600
H531        H  0.95497018  0.19380059  0.28415662     0.17000
O532        O  0.95238516  0.13063871  0.29262899    -0.59900
H533        H  0.04777278  0.13547031  0.20781038     0.17000
O534        O  0.05538455  0.19823906  0.21157204    -0.60000
H535        H  0.06886281  0.20198250  0.24064240     0.44000
H536        H  0.93181443  0.13542627  0.27512984     0.44000
C537        C  0.66816960  0.94025246  0.60158070    -0.05100
C538        C  0.69520146  0.92653306  0.62536690    -0.32500
C539        C  0.71153562  0.94379587  0.66139309     0.36700
C540        C  0.70147081  0.97578136  0.67372964    -0.05400
C541        C  0.67408565  0.98929743  0.65071793    -0.32400
C542        C  0.65728998  0.97179106  0.61536525     0.36600
H543        H  0.70374294  0.90218637  0.61623615     0.17000
O544        O  0.73714370  0.92894583  0.68461697    -0.59900
H545        H  0.66589735  0.01380655  0.65962789     0.17000
O546        O  0.63082487  0.98625519  0.59375316    -0.60000
H547        H  0.61200710  0.98109454  0.61480430     0.44000
H548        H  0.72762994  0.91970136  0.71437332     0.44000
C549        C  0.70066846  0.04802828  0.81975503    -0.05100
C550        C  0.67424473  0.03291300  0.84272954    -0.32500
C551        C  0.65700447  0.04887851  0.87935136     0.36700
C552        C  0.66637780  0.08049112  0.89433928    -0.05400
C553        C  0.69256709  0.09575168  0.87085846    -0.32400
C554        C  0.70956797  0.07990135  0.83384225     0.36600
H555        H  0.66714546  0.00834018  0.83272779     0.17000
O556        O  0.63158690  0.03288483  0.90094126    -0.59900
H557        H  0.69984636  0.12027071  0.88085023     0.17000
O558        O  0.73384315  0.09635184  0.81014135    -0.60000
H559        H  0.75201033  0.09827116  0.83352434     0.44000
H560        H  0.61233928  0.03739040  0.88031986     0.44000
C561        C  0.95836102  0.30870881  0.67787837    -0.05100
C562        C  0.92632076  0.30016042  0.66571064    -0.32500
C563        C  0.90944333  0.31703225  0.62983143     0.36700
C564        C  0.92471703  0.34294796  0.60512896    -0.05400
C565        C  0.95709121  0.35103456  0.61689513    -0.32400
C566        C  0.97394579  0.33399992  0.65271226     0.36600
H567        H  0.91407051  0.28068519  0.68483702     0.17000
O568        O  0.87801687  0.30796501  0.61950738    -0.59900
H569        H  0.96957992  0.37043979  0.59800107     0.17000
O570        O  0.00573439  0.34202267  0.66250313    -0.60000
H571        H  0.01910408  0.32673437  0.64289648     0.44000
H572        H  0.86410906  0.32093200  0.64172475     0.44000
C573        C  0.02023673  0.31046413  0.83207367    -0.05100
C574        C  0.05243947  0.30057278  0.84129880    -0.32500
C575        C  0.07206182  0.31788083  0.87332374     0.36700
C576        C  0.05945773  0.34555380  0.89760943    -0.05400
C577        C  0.02708497  0.35545721  0.88831119    -0.32400
C578        C  0.00751452  0.33811724  0.85589179     0.36600
H579        H  0.06275236  0.27964602  0.82263699     0.17000
O580        O  0.10359823  0.30747882  0.88026661    -0.59900
H581        H  0.01671790  0.37648805  0.90659278     0.17000
O582        O  0.97597349  0.34821709  0.84807996    -0.60000
H583        H  0.96257345  0.33542788  0.87093340     0.44000
H584        H  0.11659947  0.31893405  0.85544897     0.44000
C585        C  0.28837710  0.05115140  0.68358373    -0.05100
C586        C  0.31326453  0.03454705  0.65871737    -0.32500
C587        C  0.33128618  0.05006404  0.62265044     0.36700
C588        C  0.32467385  0.08298702  0.61061973    -0.05400
C589        C  0.29938016  0.09946138  0.63510067    -0.32400
C590        C  0.28129497  0.08383944  0.67117925     0.36600
H591        H  0.31864717  0.00921088  0.66707131     0.17000
O592        O  0.35466229  0.03240670  0.59849440    -0.59900
H593        H  0.29389176  0.12479014  0.62690128     0.17000
O594        O  0.25792036  0.10124056  0.69578957    -0.60000
H595        H  0.23927592  0.10339543  0.67326321     0.44000
H596        H  0.37414754  0.03268372  0.61963630     0.44000
C597        C  0.28926214  0.97996146  0.82980177    -0.05100
C598        C  0.31287867  0.99575932  0.85780459    -0.32500
C599        C  0.33121904  0.97846234  0.89186404     0.36700
C600        C  0.32663579  0.94447059  0.89783896    -0.05400
C601        C  0.30263738  0.92877841  0.87011981    -0.32400
C602        C  0.28413698  0.94620489  0.83628759     0.36600
H603        H  0.31687403  0.02177429  0.85358349     0.17000
O604        O  0.35331990  0.99521947  0.91938683    -0.59900
H605        H  0.29851609  0.90277184  0.87406340     0.17000
O606        O  0.26157630  0.92986188  0.80902914    -0.60000
H607        H  0.27343858  0.92313204  0.77953706     0.44000
H608        H  0.34124366  0.00147953  0.94892147     0.44000
C609        C  0.87531627  0.01211013  0.74953332    -0.05100
C610        C  0.85901843  0.02147446  0.70749099    -0.32500
C611        C  0.82488350  0.02184898  0.70578309     0.36700
C612        C  0.80668181  0.01276219  0.74658306    -0.05400
C613        C  0.82317236  0.00348755  0.78868941    -0.32400
C614        C  0.85728489  0.00294229  0.79022098     0.36600
H615        H  0.87284931  0.02874290  0.67612746     0.17000
O616        O  0.80954147  0.03167040  0.66442195    -0.59900
H617        H  0.80953747  0.99639669  0.82032928     0.17000
O618        O  0.87284514  0.99416864  0.83190295    -0.60000
H619        H  0.87636768  0.97021975  0.82923783     0.44000
H620        H  0.80756562  0.05578282  0.66718833     0.44000
C621        C  0.99198627  0.13381348  0.75367963    -0.05100
C622        C  0.01441496  0.15115082  0.78173769    -0.32500
C623        C  0.01452138  0.18537171  0.78232900     0.36700
C624        C  0.99025483  0.20320746  0.75697954    -0.05400
C625        C  0.96757304  0.18544494  0.72925839    -0.32400
C626        C  0.96911090  0.15132690  0.72601167     0.36600
H627        H  0.03257318  0.13803725  0.80258745     0.17000
O628        O  0.03983319  0.20085046  0.80509556    -0.59900
H629        H  0.94836733  0.19774671  0.70958648     0.17000
O630        O  0.94894977  0.13528018  0.69444289    -0.60000
H631        H  0.92633697  0.13983498  0.70544508     0.44000
H632        H  0.03721673  0.19585144  0.83975256     0.44000
C633        C  0.11397342  0.01484448  0.75887971    -0.05100
C634        C  0.13111091  0.00360668  0.71846730    -0.32500
C635        C  0.16530813  0.00408970  0.71758891     0.36700
C636        C  0.18277455  0.01541653  0.75787041    -0.05400
C637        C  0.16551718  0.02623048  0.79856356    -0.32400
C638        C  0.13132018  0.02613208  0.79913440     0.36600
H639        H  0.11788820  0.99457553  0.68750170     0.17000
O640        O  0.18151201  0.99227198  0.67802096    -0.59900
H641        H  0.17862494  0.03506977  0.82975418     0.17000
O642        O  0.11500486  0.03729271  0.83898550    -0.60000
H643        H  0.11177492  0.01770077  0.85935679     0.44000
H644        H  0.17993103  0.00988465  0.65366912     0.44000
C645        C  0.02819910  0.72031372  0.66584288    -0.05100
C646        C  0.01189202  0.69803919  0.63612736    -0.32500
C647        C  0.02877082  0.68106680  0.60001244     0.36700
C648        C  0.06267499  0.68578473  0.59389289    -0.05400
C649        C  0.07866872  0.70877794  0.62298938    -0.32400
C650        C  0.06175632  0.72582754  0.65880839     0.36600
H651        H  0.98598874  0.69387202  0.64091589     0.17000
O652        O  0.01185348  0.65995275  0.57103061    -0.59900
H653        H  0.10464444  0.71287019  0.61903296     0.17000
O654        O  0.07846980  0.74714657  0.68776622    -0.60000
H655        H  0.08561189  0.73394958  0.71575475     0.44000
H656        H  0.00556220  0.67305557  0.54250948     0.44000
C657        C  0.96449399  0.71594268  0.81895419    -0.05100
C658        C  0.93245177  0.72483059  0.83120850    -0.32500
C659        C  0.91532238  0.70784855  0.86662090     0.36700
C660        C  0.93019305  0.68123190  0.89063915    -0.05400
C661        C  0.96237678  0.67240529  0.87827598    -0.32400
C662        C  0.97946475  0.68946878  0.84269337     0.36600
H663        H  0.92049952  0.74495939  0.81287004     0.17000
O664        O  0.88375469  0.71704419  0.87641385    -0.59900
H665        H  0.97454149  0.65237589  0.89649782     0.17000
O666        O  0.01126598  0.68109395  0.83292818    -0.60000
H667        H  0.01006567  0.66067881  0.81373916     0.44000
H668        H  0.88555136  0.73545307  0.89949252     0.44000
C669        C  0.99778300  0.82424672  0.75078186    -0.05100
C670        C  0.97238149  0.84109543  0.77455881    -0.32500
C671        C  0.97211318  0.87528308  0.77767750     0.36700
C672        C  0.99641525  0.89357661  0.75423217    -0.05400
C673        C  0.02153682  0.87690736  0.73001943    -0.32400
C674        C  0.02328097  0.84279998  0.73021721     0.36600
H675        H  0.95239985  0.82794186  0.79086731     0.17000
O676        O  0.94865102  0.89062480  0.80501475    -0.59900
H677        H  0.04058923  0.89047279  0.71198713     0.17000
O678        O  0.05064819  0.82812157  0.71147850    -0.60000
H679        H  0.06494293  0.82365593  0.73948910     0.44000
H680        H  0.92747017  0.88563093  0.78942993     0.44000
C681        C  0.79536810  0.54755635  0.81770799    -0.05100
C682        C  0.82083558  0.53115038  0.84143774    -0.32500
C683        C  0.83900939  0.54692092  0.87724877     0.36700
C684        C  0.83165652  0.57963722  0.88992924    -0.05400
C685        C  0.80646856  0.59602559  0.86536914    -0.32400
C686        C  0.78861924  0.58037778  0.82944725     0.36600
H687        H  0.82635736  0.50590041  0.83260795     0.17000
O688        O  0.86308033  0.52974618  0.90057565    -0.59900
H689        H  0.80064792  0.62128460  0.87367952     0.17000
O690        O  0.76479074  0.59755508  0.80557195    -0.60000
H691        H  0.77562853  0.60623066  0.77642680     0.44000
H692        H  0.88251163  0.53121325  0.87943767     0.44000
C693        C  0.82567962  0.44868938  0.59436021    -0.05100
C694        C  0.79832202  0.43507950  0.61716804    -0.32500
C695        C  0.78076837  0.45273316  0.65172545     0.36700
C696        C  0.79017687  0.48479470  0.66393602    -0.05400
C697        C  0.81700771  0.49877173  0.64048086    -0.32400
C698        C  0.83454669  0.48116938  0.60573910     0.36600
H699        H  0.79086916  0.41028802  0.60912044     0.17000
O700        O  0.75509129  0.43794558  0.67452277    -0.59900
H701        H  0.82445817  0.52346058  0.64924165     0.17000
O702        O  0.86045212  0.49597150  0.58356840    -0.60000
H703        H  0.85110425  0.50653202  0.55458085     0.44000
H704        H  0.76452563  0.42824976  0.70408898     0.44000
C705        C  0.56713744  0.18144903  0.90063850    -0.05100
C706        C  0.53359364  0.17591884  0.89390948    -0.32500
C707        C  0.51575382  0.19386385  0.85994648     0.36700
C708        C  0.53141175  0.21767676  0.83176701    -0.05400
C709        C  0.56493022  0.22300405  0.83804960    -0.32400
C710        C  0.58283846  0.20498753  0.87172350     0.36600
H711        H  0.52097177  0.15799768  0.91558291     0.17000
O712        O  0.48292640  0.18829567  0.85508990    -0.59900
H713        H  0.57741818  0.24088652  0.81611112     0.17000
O714        O  0.61576283  0.21038994  0.87553476    -0.60000
H715        H  0.62606498  0.19466393  0.85290865     0.44000
H716        H  0.47225601  0.20339771  0.87824256     0.44000
C717        C  0.42699330  0.18530396  0.61312395    -0.05100
C718        C  0.45851773  0.17537710  0.62699787    -0.32500
C719        C  0.47637508  0.19306083  0.66100783     0.36700
C720        C  0.46266050  0.22101309  0.68316363    -0.05400
C721        C  0.43143039  0.23144466  0.66869989    -0.32400
C722        C  0.41365966  0.21395764  0.63408136     0.36600
H723        H  0.46973372  0.15393052  0.61097152     0.17000
O724        O  0.50749787  0.18293554  0.67181105    -0.59900
H725        H  0.42040054  0.25288109  0.68503676     0.17000
O726        O  0.38331249  0.22521405  0.62116048    -0.60000
H727        H  0.36803520  0.21524515  0.64450728     0.44000
H728        H  0.52193217  0.19614705  0.65093205     0.44000
C729        C  0.20188405  0.47891837  0.82706821    -0.05100
C730        C  0.20686547  0.44518443  0.83232828    -0.32500
C731        C  0.18918367  0.42740470  0.86634000     0.36700
C732        C  0.16591562  0.44340088  0.89574284    -0.05400
C733        C  0.16123083  0.47727865  0.89059868    -0.32400
C734        C  0.17914843  0.49503118  0.85689661     0.36600
H735        H  0.22405678  0.43244366  0.80925466     0.17000
O736        O  0.19391328  0.39422228  0.86906251    -0.59900
H737        H  0.14389582  0.49019832  0.91319824     0.17000
O738        O  0.17437559  0.52818112  0.85355363    -0.60000
H739        H  0.19190002  0.53800935  0.87337396     0.44000
H740        H  0.21368051  0.39128810  0.88920718     0.44000
C741        C  0.19918577  0.54984753  0.68158851    -0.05100
C742        C  0.20905563  0.58141434  0.66849831    -0.32500
C743        C  0.19214253  0.59911419  0.63334327     0.36700
C744        C  0.16459609  0.58535530  0.61059988    -0.05400
C745        C  0.15430504  0.55407093  0.62462248    -0.32400
C746        C  0.17127201  0.53635395  0.65964623     0.36600
H747        H  0.23001682  0.59248757  0.68566355     0.17000
O748        O  0.20261307  0.62996771  0.62205599    -0.59900
H749        H  0.13341223  0.54278207  0.60759182     0.17000
O750        O  0.16150630  0.50509194  0.67004548    -0.60000
H751        H  0.14055798  0.50752382  0.68763029     0.44000
H752        H  0.22067020  0.62668495  0.59876500     0.44000
C753        C  0.61685156  0.51657318  0.75814569    -0.05100
C754        C  0.63289035  0.49399366  0.72834482    -0.32500
C755        C  0.66694772  0.49307532  0.72519469     0.36700
C756        C  0.68609745  0.51694694  0.74904241    -0.05400
C757        C  0.66961855  0.54009485  0.77814354    -0.32400
C758        C  0.63560073  0.53936062  0.78395704     0.36600
H759        H  0.61885674  0.47619053  0.70831715     0.17000
O760        O  0.68091119  0.46784525  0.69992000    -0.59900
H761        H  0.68283929  0.55909970  0.79674294     0.17000
O762        O  0.62089432  0.56041919  0.81589713    -0.60000
H763        H  0.62388937  0.58263455  0.80239679     0.44000
H764        H  0.68658295  0.45112183  0.72433416     0.44000
C765        C  0.49994996  0.32576803  0.76179944    -0.05100
C766        C  0.49046121  0.34198929  0.80419862    -0.32500
C767        C  0.49040363  0.37621949  0.80683345     0.36700
C768        C  0.50027055  0.39474529  0.76696101    -0.05400
C769        C  0.51060426  0.37865490  0.72503933    -0.32400
C770        C  0.51059117  0.34442437  0.72230020     0.36600
H771        H  0.48252683  0.32804974  0.83509790     0.17000
O772        O  0.48089663  0.39140022  0.84854866    -0.59900
H773        H  0.51844612  0.39275577  0.69424471     0.17000
O774        O  0.52129740  0.32944553  0.68105495    -0.60000
H775        H  0.54478212  0.32479593  0.68663861     0.44000
H776        H  0.45694610  0.39442139  0.84551286     0.44000
C777        C  0.30679822  0.51203728  0.74956663    -0.05100
C778        C  0.32373832  0.51755747  0.79272269    -0.32500
C779        C  0.35787220  0.51763764  0.79384858     0.36700
C780        C  0.37573082  0.51219460  0.75145876    -0.05400
C781        C  0.35903858  0.50677759  0.70820463    -0.32400
C782        C  0.32481866  0.50638724  0.70707626     0.36600
H783        H  0.31044271  0.52218633  0.82570976     0.17000
O784        O  0.37368229  0.52284825  0.83659484    -0.59900
H785        H  0.37264428  0.50258305  0.67536725     0.17000
O786        O  0.30930865  0.49992908  0.66447940    -0.60000
H787        H  0.30600731  0.47592041  0.66419750     0.44000
H788        H  0.37374908  0.54691895  0.84101097     0.44000
C789        C  0.46733664  0.80973745  0.82089920    -0.05100
C790        C  0.45275483  0.84023409  0.81062749    -0.32500
C791        C  0.43562812  0.85769120  0.84602268     0.36700
C792        C  0.43157768  0.84419646  0.89197018    -0.05400
C793        C  0.44618419  0.81412658  0.90278026    -0.32400
C794        C  0.46451328  0.79718170  0.86814840     0.36600
H795        H  0.45415548  0.85048794  0.77486363     0.17000
O796        O  0.42186633  0.88737430  0.83486628    -0.59900
H797        H  0.44408464  0.80411841  0.93867540     0.17000
O798        O  0.48111674  0.76943012  0.88169414    -0.60000
H799        H  0.46412704  0.75324757  0.89029672     0.44000
H800        H  0.43936606  0.90360745  0.84050197     0.44000
C801        C  0.53645319  0.80672318  0.67054201    -0.05100
C802        C  0.52103810  0.83173807  0.64445727    -0.32500
C803        C  0.53730051  0.84782305  0.60706552     0.36700
C804        C  0.56977132  0.83912469  0.59520386    -0.05400
C805        C  0.58501368  0.81382351  0.62121913    -0.32400
C806        C  0.56864606  0.79764054  0.65839273     0.36600
H807        H  0.49605649  0.83856859  0.65271803     0.17000
O808        O  0.52083822  0.87140488  0.58164778    -0.59900
H809        H  0.60997862  0.80677661  0.61331114     0.17000
O810        O  0.58484029  0.77400619  0.68415593    -0.60000
H811        H  0.58623008  0.75476117  0.66250042     0.44000
H812        H  0.52270249  0.89160545  0.60120147     0.44000
C813        C  0.49706797  0.70292439  0.74391144    -0.05100
C814        C  0.48469842  0.68623544  0.70382322    -0.32500
C815        C  0.48316654  0.65202268  0.70350849     0.36700
C816        C  0.49454162  0.63421196  0.74338402    -0.05400
C817        C  0.50720038  0.65088818  0.78321039    -0.32400
C818        C  0.50852581  0.68500962  0.78369493     0.36600
H819        H  0.47597930  0.69979273  0.67293172     0.17000
O820        O  0.47131537  0.63611694  0.66380996    -0.59900
H821        H  0.51620555  0.63730736  0.81391476     0.17000
O822        O  0.52146899  0.70063716  0.82289895    -0.60000
H823        H  0.54495978  0.70339261  0.81534899     0.44000
H824        H  0.44725804  0.63878205  0.66546322     0.44000
C825        C  0.20131765  0.47282205  0.18019052    -0.05100
C826        C  0.21272991  0.44288965  0.16160550    -0.32500
C827        C  0.19629226  0.42701493  0.12423960     0.36700
C828        C  0.16735623  0.44067520  0.10504751    -0.05400
C829        C  0.15599067  0.47064347  0.12359448    -0.32400
C830        C  0.17283279  0.48684303  0.16022192     0.36600
H831        H  0.23455623  0.43157790  0.17614321     0.17000
O832        O  0.20917960  0.39845578  0.10635331    -0.59900
H833        H  0.13408401  0.48194203  0.10928442     0.17000
O834        O  0.16159664  0.51682270  0.17522396    -0.60000
H835        H  0.17377323  0.53298933  0.15577212     0.44000
H836        H  0.20128893  0.38106170  0.12818537     0.44000
C837        C  0.20521667  0.54220533  0.32890771    -0.05100
C838        C  0.18637708  0.52532815  0.36278374    -0.32500
C839        C  0.16953794  0.54230548  0.39902066     0.36700
C840        C  0.17130486  0.57672854  0.40155563    -0.05400
C841        C  0.19063665  0.59343912  0.36802159    -0.32400
C842        C  0.20748351  0.57646358  0.33195812     0.36600
H843        H  0.18486392  0.49889708  0.36123332     0.17000
O844        O  0.15238318  0.52497387  0.43269625    -0.59900
H845        H  0.19205156  0.61988691  0.36894094     0.17000
O846        O  0.22476699  0.59367897  0.29829759    -0.60000
H847        H  0.24568282  0.59930684  0.31414813     0.44000
H848        H  0.13135032  0.51952136  0.41704750     0.44000
C849        C  0.43373461  0.84090549  0.09957031    -0.05100
C850        C  0.41880455  0.81510736  0.12455270    -0.32500
C851        C  0.43584607  0.79726314  0.15949831     0.36700
C852        C  0.46870351  0.80466208  0.16989942    -0.05400
C853        C  0.48378513  0.83020392  0.14471950    -0.32400
C854        C  0.46673767  0.84811404  0.10977520     0.36600
H855        H  0.39353202  0.80899925  0.11763678     0.17000
O856        O  0.41981371  0.77312231  0.18405421    -0.59900
H857        H  0.50908239  0.83613060  0.15183513     0.17000
O858        O  0.48274119  0.87253658  0.08582988    -0.60000
H859        H  0.49248953  0.86180087  0.05721050     0.44000
H860        H  0.41141620  0.78382455  0.21360003     0.44000
C861        C  0.54001064  0.80434824  0.31602407    -0.05100
C862        C  0.57158168  0.81551596  0.30573148    -0.32500
C863        C  0.58969332  0.83216697  0.34071878     0.36700
C864        C  0.57600047  0.83803657  0.38627798    -0.05400
C865        C  0.54433201  0.82712381  0.39632475    -0.32400
C866        C  0.52651704  0.80993672  0.36174970     0.36600
H867        H  0.58216350  0.81121861  0.27059365     0.17000
O868        O  0.62044268  0.84305505  0.32989474    -0.59900
H869        H  0.53354763  0.83167325  0.43127713     0.17000
O870        O  0.49569031  0.79926691  0.37255058    -0.60000
H871        H  0.49881148  0.77713994  0.38640436     0.44000
H872        H  0.61718113  0.86517580  0.31607935     0.44000
C873        C  0.83063816  0.57990609  0.10056915    -0.05100
C874        C  0.80429622  0.59556786  0.12370798    -0.32500
C875        C  0.78616419  0.57961252  0.15921532     0.36700
C876        C  0.79404522  0.54723951  0.17214680    -0.05400
C877        C  0.82039441  0.53156012  0.14911910    -0.32400
C878        C  0.83878177  0.54762586  0.11404978     0.36600
H879        H  0.79784414  0.62055102  0.11475286     0.17000
O880        O  0.76195382  0.59648599  0.18285226    -0.59900
H881        H  0.82673887  0.50656679  0.15821175     0.17000
O882        O  0.86413171  0.53116182  0.09252696    -0.60000
H883        H  0.88311531  0.53443286  0.11409388     0.44000
H884        H  0.74402774  0.59902914  0.15917254     0.44000
C885        C  0.79513650  0.47563299  0.31678431    -0.05100
C886        C  0.81970576  0.49164133  0.34271318    -0.32500
C887        C  0.83768280  0.47514188  0.37785926     0.36700
C888        C  0.83099466  0.44204472  0.38794224    -0.05400
C889        C  0.80672023  0.42592097  0.36136033    -0.32400
C890        C  0.78886865  0.44243244  0.32601975     0.36600
H891        H  0.82467113  0.51725460  0.33615071     0.17000
O892        O  0.86076907  0.49204455  0.40335952    -0.59900
H893        H  0.80154783  0.40034392  0.36782144     0.17000
O894        O  0.76631998  0.42561452  0.29932030    -0.60000
H895        H  0.74757113  0.42198074  0.32119261     0.44000
H896        H  0.88082319  0.49098647  0.38342703     0.44000
C897        C  0.30913974  0.51014311  0.24599758    -0.05100
C898        C  0.32761322  0.50761261  0.28846881    -0.32500
C899        C  0.36171426  0.50819791  0.28720007     0.36700
C900        C  0.37806461  0.51048356  0.24300610    -0.05400
C901        C  0.35998136  0.51326440  0.20052471    -0.32400
C902        C  0.32574733  0.51332341  0.20168635     0.36600
H903        H  0.31560581  0.50483645  0.32287621     0.17000
O904        O  0.37895872  0.50590221  0.32929219    -0.59900
H905        H  0.37248927  0.51570095  0.16642713     0.17000
O906        O  0.30883160  0.51819940  0.15972410    -0.60000
H907        H  0.31277340  0.49829333  0.14008894     0.44000
H908        H  0.38405219  0.52878892  0.33831587     0.44000
C909        C  0.49907213  0.62995826  0.24929745    -0.05100
C910        C  0.51177140  0.64607314  0.20907512    -0.32500
C911        C  0.51316361  0.68023087  0.20772474     0.36700
C912        C  0.50181490  0.69875377  0.24705382    -0.05400
C913        C  0.48967400  0.68257743  0.28775675    -0.32400
C914        C  0.48830454  0.64836029  0.28906825     0.36600
H915        H  0.52075965  0.63204154  0.17873293     0.17000
O916        O  0.52695945  0.69531602  0.16876089    -0.59900
H917        H  0.48101082  0.69654876  0.31835712     0.17000
O918        O  0.47624448  0.63310139  0.32910317    -0.60000
H919        H  0.49571519  0.62733717  0.34856196     0.44000
H920        H  0.51010680  0.69453451  0.14322000     0.44000
C921        C  0.61895203  0.50921452  0.24696400    -0.05100
C922        C  0.63594425  0.51158508  0.29049536    -0.32500
C923        C  0.67006034  0.51358880  0.29104780     0.36700
C924        C  0.68790382  0.51192334  0.24755161    -0.05400
C925        C  0.67058611  0.50952714  0.20404256    -0.32400
C926        C  0.63644060  0.50847678  0.20357383     0.36600
H927        H  0.62258433  0.51274399  0.32406186     0.17000
O928        O  0.68555252  0.51798472  0.33423478    -0.59900
H929        H  0.68351351  0.50810359  0.17016437     0.17000
O930        O  0.62025305  0.50735649  0.16048966    -0.60000
H931        H  0.61967138  0.48387183  0.15161712     0.44000
H932        H  0.68781615  0.54200089  0.33781031     0.44000
C933        C  0.53831027  0.21371755  0.18670229    -0.05100
C934        C  0.52366686  0.18605718  0.16615210    -0.32500
C935        C  0.53900048  0.16876069  0.12892929     0.36700
C936        C  0.56977921  0.17889244  0.11160775    -0.05400
C937        C  0.58435636  0.20659295  0.13230626    -0.32400
C938        C  0.56906486  0.22376878  0.16957123     0.36600
H939        H  0.49990660  0.17808485  0.17844476     0.17000
O940        O  0.52359141  0.14197537  0.10999911    -0.59900
H941        H  0.60798258  0.21490823  0.11998155     0.17000
O942        O  0.58471452  0.25011484  0.18940007    -0.60000
H943        H  0.59581108  0.24147941  0.21842103     0.44000
H944        H  0.50934095  0.15072626  0.08418940     0.44000
C945        C  0.47034818  0.21503372  0.33649501    -0.05100
C946        C  0.43681650  0.22115522  0.34154279    -0.32500
C947        C  0.41819978  0.20415223  0.37527408     0.36700
C948        C  0.43312158  0.18078879  0.40558146    -0.05400
C949        C  0.46677583  0.17456690  0.40037603    -0.32400
C950        C  0.48535878  0.19152446  0.36627107     0.36600
H951        H  0.42480978  0.23879506  0.31841564     0.17000
O952        O  0.38529084  0.21031123  0.37765991    -0.59900
H953        H  0.47885272  0.15680437  0.42319894     0.17000
O954        O  0.51819619  0.18520854  0.36270361    -0.60000
H955        H  0.52873597  0.20117017  0.38453606     0.44000
H956        H  0.37518232  0.19419106  0.35562155     0.44000
C957        C  0.50017790  0.32026804  0.25562566    -0.05100
C958        C  0.49065812  0.33503455  0.21220656    -0.32500
C959        C  0.48987078  0.36911978  0.20760586     0.36700
C960        C  0.49893094  0.38898298  0.24657625    -0.05400
C961        C  0.50822115  0.37438871  0.29007092    -0.32400
C962        C  0.50897074  0.34030399  0.29477570     0.36600
H963        H  0.48377324  0.32006081  0.18174199     0.17000
O964        O  0.48098976  0.38285052  0.16460814    -0.59900
H965        H  0.51521096  0.38954944  0.32028685     0.17000
O966        O  0.51907720  0.32684950  0.33738481    -0.60000
H967        H  0.54289457  0.32320002  0.33355320     0.44000
H968        H  0.45679327  0.38377681  0.16526995     0.44000
loop_ 
_geom_bond_atom_site_label_1 
_geom_bond_atom_site_label_2 
_geom_bond_distance 
_geom_bond_site_symmetry_2 
_ccdc_geom_bond_type 
C1            C2   1.402       .  A
C1            C6   1.404       .  A
C1          C957   1.484       .  S
C2            C3   1.404       .  A
C2            H7   1.083       .  S
C3            C4   1.406       .  A
C3          C933   1.486       .  S
C4            C5   1.404       .  A
C4            H8   1.084       .  S
C5            C6   1.406       .  A
C5          C945   1.483       .  S
C6            H9   1.084       .  S
N10          C15   1.352       .  A
N10          C14   1.353       .  A
N10          H42   1.035       .  S
N11          C18   1.353       .  A
N11          C19   1.352       .  A
N12          C17   1.354       .  A
N12          C16   1.354       .  A
N12          H43   1.035       .  S
N13          C20   1.352       .  A
N13          C21   1.352       .  A
C14          C22   1.388       .  A
C14          C30   1.417       .  A
C15          C31   1.416       .  A
C15          C23   1.387       .  A
C16          C24   1.387       .  A
C16          C33   1.419       .  A
C17          C32   1.419       .  A
C17          C25   1.388       .  A
C18          C30   1.417       .  A
C18          C26   1.387       .  A
C19          C33   1.416       .  A
C19          C27   1.387       .  A
C20          C28   1.386       .  A
C20          C31   1.416       .  A
C21          C29   1.387       .  A
C21          C32   1.415       .  A
C22          C23   1.373       .  A
C22          H34   1.082       .  S
C23          H35   1.082       .  S
C24          C25   1.373       .  A
C24          H36   1.082       .  S
C25          H37   1.082       .  S
C26          C27   1.372       .  A
C26          H38   1.082       .  S
C27          H39   1.082       .  S
C28          C29   1.371       .  A
C28          H40   1.082       .  S
C29          H41   1.082       .  S
C30         C921   1.487       .  S
C31         C909   1.486       .  S
C32         C900   1.485       .  S
C33         C960   1.487       .  S
C44          C45   1.409       .  A
C44          C49   1.405       .  A
C44         C924   1.492       .  S
C45          C46   1.407       .  A
C45          H50   1.082       .  S
C46          C47   1.402       .  A
C46         C876   1.487       .  S
C47          C48   1.399       .  A
C47          H51   1.084       .  S
C48          C49   1.402       .  A
C48         C885   1.478       .  S
C49          H52   1.082       .  S
C53          C54   1.401       .  A
C53          C58   1.405       .  A
C53         C912   1.479       .  S
C54          C55   1.400       .  A
C54          H59   1.084       .  S
C55          C56   1.403       .  A
C55         C861   1.473       .  S
C56          C57   1.407       .  A
C56          H60   1.084       .  S
C57          C58   1.407       .  A
C57         C852   1.490       .  S
C58          H61   1.083       .  S
C62          C63   1.406       .  A
C62          C67   1.405       .  A
C62         C897   1.491       .  S
C63          C64   1.402       .  A
C63          H68   1.083       .  S
C64          C65   1.402       .  A
C64         C837   1.480       .  S
C65          C66   1.407       .  A
C65          H69   1.083       .  S
C66          C67   1.406       .  A
C66         C825   1.490       .  S
C67          H70   1.081       .  S
C71          C72   1.398       .  A
C71          C76   1.399       .  A
C71         C813   1.475       .  S
C72          C73   1.402       .  A
C72          H77   1.084       .  S
C73          C74   1.409       .  A
C73         C801   1.485       .  S
C74          C75   1.412       .  A
C74          H78   1.083       .  S
C75          C76   1.407       .  A
C75         C789   1.498       .  S
C76          H79   1.082       .  S
N80          C85   1.354       .  A
N80          C84   1.355       .  A
N80         H112   1.036       .  S
N81          C88   1.352       .  A
N81          C89   1.352       .  A
N82          C87   1.355       .  A
N82          C86   1.352       .  A
N82         H113   1.039       .  S
N83          C90   1.352       .  A
N83          C91   1.352       .  A
C84          C92   1.387       .  A
C84         C100   1.418       .  A
C85         C101   1.419       .  A
C85          C93   1.387       .  A
C86          C94   1.385       .  A
C86         C103   1.412       .  A
C87         C102   1.418       .  A
C87          C95   1.388       .  A
C88         C100   1.415       .  A
C88          C96   1.387       .  A
C89         C103   1.412       .  A
C89          C97   1.386       .  A
C90          C98   1.385       .  A
C90         C101   1.414       .  A
C91          C99   1.387       .  A
C91         C102   1.417       .  A
C92          C93   1.375       .  A
C92         H104   1.082       .  S
C93         H105   1.082       .  S
C94          C95   1.373       .  A
C94         H106   1.083       .  S
C95         H107   1.082       .  S
C96          C97   1.370       .  A
C96         H108   1.082       .  S
C97         H109   1.082       .  S
C98          C99   1.373       .  A
C98         H110   1.082       .  S
C99         H111   1.082       .  S
C100        C780   1.487       .  S
C101        C768   1.488       .  S
C102        C753   1.496       .  S
C103        C816   1.483       .  S
C114        C115   1.407       .  A
C114        C119   1.405       .  A
C114        C777   1.487       .  S
C115        C116   1.408       .  A
C115        H120   1.083       .  S
C116        C117   1.401       .  A
C116        C741   1.485       .  S
C117        C118   1.399       .  A
C117        H121   1.083       .  S
C118        C119   1.401       .  A
C118        C729   1.477       .  S
C119        H122   1.084       .  S
C123        C124   1.409       .  A
C123        C128   1.403       .  A
C123        C765   1.486       .  S
C124        C125   1.410       .  A
C124        H129   1.083       .  S
C125        C126   1.406       .  A
C125        C720   1.493       .  S
C126        C127   1.402       .  A
C126        H130   1.083       .  S
C127        C128   1.402       .  A
C127        C708   1.481       .  S
C128        H131   1.084       .  S
C132        C133   1.411       .  A
C132        C137   1.412       .  A
C132        C756   1.507       .  S
C133        C134   1.404       .  A
C133        H138   1.081       .  S
C134        C135   1.398       .  A
C134        C681   1.479       .  S
C135        C136   1.401       .  A
C135        H139   1.084       .  S
C136        C137   1.405       .  A
C136        C696   1.483       .  S
C137        H140   1.080       .  S
C141        C142   1.407   1_655  A
C141        C146   1.408       .  A
C141        C669   1.496       .  S
C142        C143   1.400       .  A
C142        H147   1.081       .  S
C143        C144   1.400   1_455  A
C143        C645   1.477       .  S
C144        C145   1.402       .  A
C144        H148   1.083       .  S
C145        C146   1.404       .  A
C145        C657   1.480       .  S
C146        H149   1.082       .  S
N150        C155   1.352       .  A
N150        C154   1.352       .  A
N150        H182   1.041       .  S
N151        C158   1.350       .  A
N151        C159   1.350       .  A
N152        C157   1.351       .  A
N152        C156   1.351       .  A
N152        H183   1.042       .  S
N153        C160   1.349       .  A
N153        C161   1.349       .  A
C154        C162   1.386       .  A
C154        C170   1.411       .  A
C155        C171   1.417   1_455  A
C155        C163   1.388       .  A
C156        C164   1.389       .  A
C156        C173   1.415       .  A
C157        C172   1.408   1_565  A
C157        C165   1.385       .  A
C158        C170   1.408   1_565  A
C158        C166   1.384       .  A
C159        C173   1.415   1_455  A
C159        C167   1.388       .  A
C160        C168   1.388       .  A
C160        C171   1.413       .  A
C161        C169   1.384       .  A
C161        C172   1.406       .  A
C162        C163   1.378       .  A
C162        H174   1.082       .  S
C163        H175   1.082       .  S
C164        C165   1.377       .  A
C164        H176   1.082       .  S
C165        H177   1.082       .  S
C166        C167   1.374       .  A
C166        H178   1.082       .  S
C167        H179   1.082       .  S
C168        C169   1.373       .  A
C168        H180   1.082       .  S
C169        H181   1.082       .  S
C170        C633   1.483       .  S
C171        C621   1.491       .  S
C172        C609   1.478       .  S
C173        C672   1.494       .  S
C184        C185   1.404   1_545  A
C184        C189   1.405       .  A
C184        C636   1.481       .  S
C185        C186   1.404       .  A
C185        H190   1.084       .  S
C186        C187   1.405   1_565  A
C186        C597   1.484       .  S
C187        C188   1.406       .  A
C187        H191   1.084       .  S
C188        C189   1.405       .  A
C188        C585   1.488       .  S
C189        H192   1.083       .  S
C193        C194   1.409   1_655  A
C193        C198   1.409       .  A
C193        C624   1.502       .  S
C194        C195   1.403       .  A
C194        H199   1.079       .  S
C195        C196   1.398   1_455  A
C195        C573   1.478       .  S
C196        C197   1.399       .  A
C196        H200   1.084       .  S
C197        C198   1.401       .  A
C197        C561   1.475       .  S
C198        H201   1.081       .  S
C202        C203   1.401   1_545  A
C202        C207   1.401       .  A
C202        C612   1.479       .  S
C203        C204   1.404       .  A
C203        H208   1.083       .  S
C204        C205   1.406   1_565  A
C204        C540   1.485       .  S
C205        C206   1.406       .  A
C205        H209   1.083       .  S
C206        C207   1.404       .  A
C206        C549   1.485       .  S
C207        H210   1.083       .  S
C211        C212   1.407       .  A
C211        C216   1.408   1_455  A
C211        C525   1.496       .  S
C212        C213   1.404       .  A
C212        H217   1.082       .  S
C213        C214   1.400   1_455  A
C213        C516   1.482       .  S
C214        C215   1.401       .  A
C214        H218   1.083       .  S
C215        C216   1.403       .  A
C215        C501   1.480       .  S
C216        H219   1.083       .  S
N220        C225   1.352       .  A
N220        C224   1.353       .  A
N220        H252   1.040       .  S
N221        C228   1.351       .  A
N221        C229   1.350       .  A
N222        C227   1.352       .  A
N222        C226   1.352       .  A
N222        H253   1.039       .  S
N223        C230   1.351       .  A
N223        C231   1.350       .  A
C224        C232   1.388       .  A
C224        C240   1.418   1_655  A
C225        C241   1.410       .  A
C225        C233   1.385       .  A
C226        C234   1.387       .  A
C226        C243   1.414   1_565  A
C227        C242   1.414       .  A
C227        C235   1.387       .  A
C228        C240   1.416       .  A
C228        C236   1.388       .  A
C229        C243   1.409       .  A
C229        C237   1.384       .  A
C230        C238   1.386       .  A
C230        C241   1.410   1_565  A
C231        C239   1.387       .  A
C231        C242   1.412   1_655  A
C232        C233   1.378       .  A
C232        H244   1.082       .  S
C233        H245   1.082       .  S
C234        C235   1.376       .  A
C234        H246   1.082       .  S
C235        H247   1.082       .  S
C236        C237   1.373       .  A
C236        H248   1.082       .  S
C237        H249   1.083       .  S
C238        C239   1.370       .  A
C238        H250   1.082       .  S
C239        H251   1.082       .  S
C240        C528   1.497       .  S
C241        C492   1.483       .  S
C242        C477   1.481       .  S
C243        C465   1.483       .  S
C254        C255   1.402       .  A
C254        C259   1.407   1_545  A
C254        C489   1.483       .  S
C255        C256   1.403       .  A
C255        H260   1.084       .  S
C256        C257   1.404       .  A
C256        C453   1.484       .  S
C257        C258   1.405   1_545  A
C257        H261   1.084       .  S
C258        C259   1.406       .  A
C258        C444   1.486       .  S
C259        H262   1.084       .  S
C263        C264   1.404   1_455  A
C263        C268   1.404       .  A
C263        C480   1.482       .  S
C264        C265   1.400       .  A
C264        H269   1.083       .  S
C265        C266   1.399   1_655  A
C265        C429   1.473       .  S
C266        C267   1.402       .  A
C266        H270   1.084       .  S
C267        C268   1.405       .  A
C267        C417   1.483       .  S
C268        H271   1.083       .  S
C272        C273   1.402   1_545  A
C272        C277   1.400       .  A
C272        C468   1.479       .  S
C273        C274   1.407       .  A
C273        H278   1.083       .  S
C274        C275   1.410   1_565  A
C274        C405   1.493       .  S
C275        C276   1.406       .  A
C275        H279   1.082       .  S
C276        C277   1.404       .  A
C276        C396   1.488       .  S
C277        H280   1.084       .  S
O281       Cu289   2.015       .  S
O281        C291   1.279       .  A
O282       Cu289   2.014   1_556  S
O282        C292   1.280       .  A
O283       Cu289   2.011   1_556  S
O283        C293   1.278       .  A
O284       Cu289   2.009       .  S
O284        C294   1.279       .  A
O285       Cu290   2.004   1_554  S
O285        C294   1.277       .  A
O286       Cu290   2.000       .  S
O286        C293   1.277       .  A
O287       Cu290   1.995       .  S
O287        C292   1.276       .  A
O288       Cu290   1.992   1_554  S
O288        C291   1.276       .  A
Cu289      Cu290   2.368   1_554  S
C291        C513   1.483       .  S
C292        C732   1.481       .  S
C293        C576   1.484       .  S
C294        C828   1.487       .  S
O295       Cu303   2.005       .  S
O295        C305   1.277       .  A
O296       Cu303   2.003   1_556  S
O296        C306   1.277       .  A
O297       Cu303   2.017       .  S
O297        C307   1.280       .  A
O298       Cu303   2.016   1_556  S
O298        C308   1.279       .  A
O299       Cu304   2.001   1_556  S
O299        C308   1.277       .  A
O300       Cu304   2.003       .  S
O300        C307   1.277       .  A
O301       Cu304   2.007   1_556  S
O301        C306   1.278       .  A
O302       Cu304   2.009       .  S
O302        C305   1.279       .  A
Cu303      Cu304   2.367       .  S
C305        C936   1.487       .  S
C306        C552   1.484       .  S
C307        C456   1.488       .  S
C308        C705   1.484       .  S
O309       Cu317   2.016   1_554  S
O309        C319   1.279       .  A
O310       Cu317   2.014       .  S
O310        C320   1.279       .  A
O311       Cu317   2.003   1_554  S
O311        C321   1.278       .  A
O312       Cu317   2.008       .  S
O312        C322   1.277       .  A
O313       Cu318   2.003       .  S
O313        C322   1.278       .  A
O314       Cu318   2.004   1_554  S
O314        C321   1.277       .  A
O315       Cu318   2.000       .  S
O315        C320   1.277       .  A
O316       Cu318   1.999   1_554  S
O316        C319   1.277       .  A
Cu317      Cu318   2.369       .  S
C319        C873   1.485       .  S
C320        C660   1.485       .  S
C321        C432   1.477       .  S
C322        C684   1.483       .  S
O323       Cu331   2.005       .  S
O323        C333   1.276       .  A
O324       Cu331   2.003   1_554  S
O324        C334   1.278       .  A
O325       Cu331   2.020   1_554  S
O325        C335   1.279       .  A
O326       Cu331   2.007       .  S
O326        C336   1.278       .  A
O327       Cu332   2.017       .  S
O327        C336   1.279       .  A
O328       Cu332   2.015   1_554  S
O328        C335   1.279       .  A
O329       Cu332   2.015   1_554  S
O329        C334   1.279       .  A
O330       Cu332   2.015       .  S
O330        C333   1.278       .  A
Cu331      Cu332   2.369       .  S
C333        C792   1.470       .  S
C334        C408   1.488       .  S
C335        C849   1.491       .  S
C336        C600   1.487       .  S
O337       Cu345   2.010       .  S
O337        C347   1.278       .  A
O338       Cu345   2.008       .  S
O338        C348   1.278       .  A
O339       Cu345   2.004       .  S
O339        C349   1.278       .  A
O340       Cu345   2.004       .  S
O340        C350   1.278       .  A
O341       Cu346   2.002       .  S
O341        C350   1.277       .  A
O342       Cu346   1.999       .  S
O342        C349   1.277       .  A
O343       Cu346   2.009       .  S
O343        C348   1.279       .  A
O344       Cu346   2.010       .  S
O344        C347   1.278       .  A
Cu345      Cu346   2.369       .  S
C347        C840   1.481       .  S
C348        C648   1.482       .  S
C349        C420   1.482       .  S
C350        C744   1.484       .  S
O351       Cu359   2.014       .  S
O351        C361   1.278       .  A
O352       Cu359   2.011       .  S
O352        C362   1.279       .  A
O353       Cu359   2.016       .  S
O353        C363   1.279       .  A
O354       Cu359   2.008       .  S
O354        C364   1.278       .  A
O355       Cu360   2.014       .  S
O355        C364   1.278       .  A
O356       Cu360   2.017       .  S
O356        C363   1.279       .  A
O357       Cu360   2.018       .  S
O357        C362   1.279       .  A
O358       Cu360   2.017       .  S
O358        C361   1.280       .  A
Cu359      Cu360   2.366       .  S
C361        C717   1.492       .  S
C362        C393   1.491       .  S
C363        C588   1.490       .  S
C364        C948   1.486       .  S
O365       Cu373   1.995       .  S
O365        C375   1.276       .  A
O366       Cu373   1.995       .  S
O366        C376   1.277       .  A
O367       Cu373   2.006       .  S
O367        C377   1.278       .  A
O368       Cu373   2.011       .  S
O368        C378   1.279       .  A
O369       Cu374   2.005       .  S
O369        C378   1.277       .  A
O370       Cu374   2.002       .  S
O370        C377   1.278       .  A
O371       Cu374   2.002       .  S
O371        C376   1.277       .  A
O372       Cu374   2.004       .  S
O372        C375   1.278       .  A
Cu373      Cu374   2.369       .  S
C375        C564   1.480       .  S
C376        C888   1.478       .  S
C377        C504   1.484       .  S
C378        C693   1.486       .  S
O379       Cu387   2.014       .  S
O379        C389   1.279       .  A
O380       Cu387   2.022       .  S
O380        C390   1.280       .  A
O381       Cu387   1.999       .  S
O381        C391   1.275       .  A
O382       Cu387   1.995       .  S
O382        C392   1.276       .  A
O383       Cu388   2.016       .  S
O383        C392   1.280       .  A
O384       Cu388   2.018       .  S
O384        C391   1.278       .  A
O385       Cu388   2.011       .  S
O385        C390   1.278       .  A
O386       Cu388   2.015       .  S
O386        C389   1.279       .  A
Cu387      Cu388   2.370       .  S
C389        C804   1.490       .  S
C390        C441   1.488       .  S
C391        C864   1.468       .  S
C392        C537   1.485       .  S
C393        C394   1.406       .  A
C393        C398   1.415       .  A
C394        C395   1.398       .  A
C394        H399   1.083       .  S
C395        C396   1.410       .  A
C395        O400   1.372       .  S
C396        C397   1.405       .  A
C397        C398   1.404       .  A
C397        H401   1.083       .  S
C398        O402   1.371       .  S
O400        H404   0.992       .  S
O402        H403   0.992       .  S
C405        C406   1.407       .  A
C405        C410   1.411       .  A
C406        C407   1.401       .  A
C406        H411   1.083       .  S
C407        C408   1.412       .  A
C407        O412   1.372       .  S
C408        C409   1.407       .  A
C409        C410   1.399       .  A
C409        H413   1.083       .  S
C410        O414   1.371   1_565  S
O412        H416   0.992       .  S
O414        H415   0.992       .  S
C417        C418   1.404       .  A
C417        C422   1.409       .  A
C418        C419   1.398       .  A
C418        H423   1.083   1_455  S
C419        C420   1.412       .  A
C419        O424   1.372       .  S
C420        C421   1.406       .  A
C421        C422   1.397       .  A
C421        H425   1.083       .  S
C422        O426   1.372       .  S
O424        H428   0.992       .  S
O426        H427   0.992       .  S
C429        C430   1.400       .  A
C429        C434   1.406       .  A
C430        C431   1.397       .  A
C430        H435   1.084   1_655  S
C431        C432   1.410       .  A
C431        O436   1.372       .  S
C432        C433   1.406       .  A
C433        C434   1.400       .  A
C433        H437   1.084       .  S
C434        O438   1.372       .  S
O436        H440   0.992       .  S
O438        H439   0.992       .  S
C441        C442   1.407       .  A
C441        C446   1.412       .  A
C442        C443   1.403       .  A
C442        H447   1.083       .  S
C443        C444   1.409       .  A
C443        O448   1.372       .  S
C444        C445   1.404       .  A
C445        C446   1.402       .  A
C445        H449   1.084   1_565  S
C446        O450   1.372       .  S
O448        H452   0.992       .  S
O450        H451   0.992       .  S
C453        C454   1.403       .  A
C453        C458   1.409       .  A
C454        C455   1.399       .  A
C454        H459   1.084       .  S
C455        C456   1.414       .  A
C455        O460   1.372       .  S
C456        C457   1.407       .  A
C457        C458   1.401       .  A
C457        H461   1.083       .  S
C458        O462   1.372   1_545  S
O460        H464   0.992       .  S
O462        H463   0.992       .  S
C465        C466   1.402       .  A
C465        C470   1.406   1_545  A
C466        C467   1.399       .  A
C466        H471   1.084       .  S
C467        C468   1.408       .  A
C467        O472   1.372       .  S
C468        C469   1.405       .  A
C469        C470   1.401   1_545  A
C469        H473   1.084   1_545  S
C470        O474   1.371       .  S
O472        H476   0.992       .  S
O474        H475   0.992   1_565  S
C477        C478   1.400       .  A
C477        C482   1.405   1_455  A
C478        C479   1.399       .  A
C478        H483   1.084       .  S
C479        C480   1.411       .  A
C479        O484   1.372       .  S
C480        C481   1.405   1_455  A
C481        C482   1.398       .  A
C481        H485   1.083       .  S
C482        O486   1.371       .  S
O484        H488   0.992   1_455  S
O486        H487   0.992   1_655  S
C489        C490   1.403       .  A
C489        C494   1.412   1_545  A
C490        C491   1.398       .  A
C490        H495   1.084       .  S
C491        C492   1.405       .  A
C491        O496   1.372       .  S
C492        C493   1.402   1_545  A
C493        C494   1.403       .  A
C493        H497   1.083       .  S
C494        O498   1.372       .  S
O496        H500   0.992       .  S
O498        H499   0.992   1_565  S
C501        C502   1.403       .  A
C501        C506   1.407       .  A
C502        C503   1.398       .  A
C502        H507   1.084       .  S
C503        C504   1.413       .  A
C503        O508   1.371       .  S
C504        C505   1.407       .  A
C505        C506   1.398       .  A
C505        H509   1.083       .  S
C506        O510   1.372   1_655  S
O508        H512   0.992       .  S
O510        H511   0.992       .  S
C513        C514   1.407       .  A
C513        C518   1.413       .  A
C514        C515   1.401       .  A
C514        H519   1.083       .  S
C515        C516   1.410       .  A
C515        O520   1.372   1_455  S
C516        C517   1.401       .  A
C517        C518   1.395       .  A
C517        H521   1.084       .  S
C518        O522   1.372       .  S
O520        H524   0.992       .  S
O522        H523   0.992       .  S
C525        C526   1.408   1_455  A
C525        C530   1.415       .  A
C526        C527   1.400       .  A
C526        H531   1.082       .  S
C527        C528   1.409   1_655  A
C527        O532   1.373       .  S
C528        C529   1.405       .  A
C529        C530   1.399       .  A
C529        H533   1.084       .  S
C530        O534   1.372       .  S
O532        H536   0.992       .  S
O534        H535   0.992       .  S
C537        C538   1.405       .  A
C537        C542   1.415       .  A
C538        C539   1.398       .  A
C538        H543   1.083       .  S
C539        C540   1.411       .  A
C539        O544   1.372       .  S
C540        C541   1.403       .  A
C541        C542   1.399       .  A
C541        H545   1.083   1_565  S
C542        O546   1.372       .  S
O544        H548   0.992       .  S
O546        H547   0.992       .  S
C549        C550   1.404       .  A
C549        C554   1.410       .  A
C550        C551   1.399       .  A
C550        H555   1.083       .  S
C551        C552   1.413       .  A
C551        O556   1.371       .  S
C552        C553   1.405       .  A
C553        C554   1.400       .  A
C553        H557   1.083       .  S
C554        O558   1.373       .  S
O556        H560   0.992       .  S
O558        H559   0.992       .  S
C561        C562   1.401       .  A
C561        C566   1.406       .  A
C562        C563   1.396       .  A
C562        H567   1.084       .  S
C563        C564   1.413       .  A
C563        O568   1.372       .  S
C564        C565   1.407       .  A
C565        C566   1.398       .  A
C565        H569   1.083       .  S
C566        O570   1.372   1_655  S
O568        H572   0.992       .  S
O570        H571   0.992       .  S
C573        C574   1.401       .  A
C573        C578   1.407       .  A
C574        C575   1.395       .  A
C574        H579   1.084       .  S
C575        C576   1.412       .  A
C575        O580   1.372       .  S
C576        C577   1.408       .  A
C577        C578   1.401       .  A
C577        H581   1.083       .  S
C578        O582   1.372   1_455  S
O580        H584   0.992       .  S
O582        H583   0.992       .  S
C585        C586   1.404       .  A
C585        C590   1.410       .  A
C586        C587   1.401       .  A
C586        H591   1.084       .  S
C587        C588   1.413       .  A
C587        O592   1.371       .  S
C588        C589   1.408       .  A
C589        C590   1.404       .  A
C589        H593   1.083       .  S
C590        O594   1.372       .  S
O592        H596   0.992       .  S
O594        H595   0.992       .  S
C597        C598   1.402       .  A
C597        C602   1.409       .  A
C598        C599   1.400       .  A
C598        H603   1.084   1_565  S
C599        C600   1.414       .  A
C599        O604   1.372       .  S
C600        C601   1.407       .  A
C601        C602   1.402       .  A
C601        H605   1.083       .  S
C602        O606   1.372       .  S
O604        H608   0.992   1_565  S
O606        H607   0.992       .  S
C609        C610   1.400       .  A
C609        C614   1.405       .  A
C610        C611   1.399       .  A
C610        H615   1.084       .  S
C611        C612   1.410       .  A
C611        O616   1.372       .  S
C612        C613   1.405       .  A
C613        C614   1.398       .  A
C613        H617   1.084   1_545  S
C614        O618   1.371   1_545  S
O616        H620   0.992       .  S
O618        H619   0.992       .  S
C621        C622   1.401   1_655  A
C621        C626   1.407       .  A
C622        C623   1.399       .  A
C622        H627   1.084       .  S
C623        C624   1.418   1_455  A
C623        O628   1.372       .  S
C624        C625   1.411       .  A
C625        C626   1.399       .  A
C625        H629   1.081       .  S
C626        O630   1.374       .  S
O628        H632   0.992       .  S
O630        H631   0.992       .  S
C633        C634   1.401       .  A
C633        C638   1.406       .  A
C634        C635   1.401       .  A
C634        H639   1.084   1_545  S
C635        C636   1.409       .  A
C635        O640   1.372   1_545  S
C636        C637   1.405       .  A
C637        C638   1.401       .  A
C637        H641   1.084       .  S
C638        O642   1.371       .  S
O640        H644   0.992   1_565  S
O642        H643   0.992       .  S
C645        C646   1.401       .  A
C645        C650   1.408       .  A
C646        C647   1.401       .  A
C646        H651   1.084   1_455  S
C647        C648   1.413       .  A
C647        O652   1.371       .  S
C648        C649   1.405       .  A
C649        C650   1.397       .  A
C649        H653   1.083       .  S
C650        O654   1.372       .  S
O652        H656   0.992       .  S
O654        H655   0.992       .  S
C657        C658   1.402       .  A
C657        C662   1.407       .  A
C658        C659   1.398       .  A
C658        H663   1.084       .  S
C659        C660   1.414       .  A
C659        O664   1.372       .  S
C660        C661   1.407       .  A
C661        C662   1.402       .  A
C661        H665   1.083       .  S
C662        O666   1.372   1_655  S
O664        H668   0.992       .  S
O666        H667   0.992       .  S
C669        C670   1.409       .  A
C669        C674   1.415   1_655  A
C670        C671   1.400       .  A
C670        H675   1.082       .  S
C671        C672   1.409       .  A
C671        O676   1.374       .  S
C672        C673   1.403   1_655  A
C673        C674   1.396       .  A
C673        H677   1.083       .  S
C674        O678   1.371       .  S
O676        H680   0.992       .  S
O678        H679   0.992       .  S
C681        C682   1.403       .  A
C681        C686   1.407       .  A
C682        C683   1.403       .  A
C682        H687   1.084       .  S
C683        C684   1.414       .  A
C683        O688   1.372       .  S
C684        C685   1.405       .  A
C685        C686   1.395       .  A
C685        H689   1.083       .  S
C686        O690   1.372       .  S
O688        H692   0.992       .  S
O690        H691   0.992       .  S
C693        C694   1.406       .  A
C693        C698   1.414       .  A
C694        C695   1.398       .  A
C694        H699   1.083       .  S
C695        C696   1.409       .  A
C695        O700   1.372       .  S
C696        C697   1.403       .  A
C697        C698   1.401       .  A
C697        H701   1.084       .  S
C698        O702   1.371       .  S
O700        H704   0.992       .  S
O702        H703   0.992       .  S
C705        C706   1.406       .  A
C705        C710   1.413       .  A
C706        C707   1.401       .  A
C706        H711   1.083       .  S
C707        C708   1.408       .  A
C707        O712   1.371       .  S
C708        C709   1.402       .  A
C709        C710   1.399       .  A
C709        H713   1.084       .  S
C710        O714   1.372       .  S
O712        H716   0.992       .  S
O714        H715   0.992       .  S
C717        C718   1.406       .  A
C717        C722   1.415       .  A
C718        C719   1.399       .  A
C718        H723   1.083       .  S
C719        C720   1.412       .  A
C719        O724   1.372       .  S
C720        C721   1.405       .  A
C721        C722   1.405       .  A
C721        H725   1.083       .  S
C722        O726   1.371       .  S
O724        H728   0.992       .  S
O726        H727   0.992       .  S
C729        C730   1.401       .  A
C729        C734   1.408       .  A
C730        C731   1.399       .  A
C730        H735   1.084       .  S
C731        C732   1.413       .  A
C731        O736   1.372       .  S
C732        C733   1.405       .  A
C733        C734   1.398       .  A
C733        H737   1.083       .  S
C734        O738   1.372       .  S
O736        H740   0.992       .  S
O738        H739   0.992       .  S
C741        C742   1.403       .  A
C741        C746   1.411       .  A
C742        C743   1.400       .  A
C742        H747   1.083       .  S
C743        C744   1.413       .  A
C743        O748   1.372       .  S
C744        C745   1.405       .  A
C745        C746   1.398       .  A
C745        H749   1.083       .  S
C746        O750   1.373       .  S
O748        H752   0.992       .  S
O750        H751   0.992       .  S
C753        C754   1.401       .  A
C753        C758   1.407       .  A
C754        C755   1.398       .  A
C754        H759   1.084       .  S
C755        C756   1.419       .  A
C755        O760   1.370       .  S
C756        C757   1.414       .  A
C757        C758   1.403       .  A
C757        H761   1.081       .  S
C758        O762   1.374       .  S
O760        H764   0.992       .  S
O762        H763   0.992       .  S
C765        C766   1.407       .  A
C765        C770   1.410       .  A
C766        C767   1.401       .  A
C766        H771   1.083       .  S
C767        C768   1.405       .  A
C767        O772   1.371       .  S
C768        C769   1.403       .  A
C769        C770   1.402       .  A
C769        H773   1.084       .  S
C770        O774   1.371       .  S
O772        H776   0.992       .  S
O774        H775   0.992       .  S
C777        C778   1.406       .  A
C777        C782   1.412       .  A
C778        C779   1.398       .  A
C778        H783   1.083       .  S
C779        C780   1.405       .  A
C779        O784   1.372       .  S
C780        C781   1.403       .  A
C781        C782   1.402       .  A
C781        H785   1.083       .  S
C782        O786   1.371       .  S
O784        H788   0.992       .  S
O786        H787   0.992       .  S
C789        C790   1.410       .  A
C789        C794   1.418       .  A
C790        C791   1.402       .  A
C790        H795   1.083       .  S
C791        C792   1.404       .  A
C791        O796   1.372       .  S
C792        C793   1.398       .  A
C793        C794   1.402       .  A
C793        H797   1.084       .  S
C794        O798   1.373       .  S
O796        H800   0.992       .  S
O798        H799   0.992       .  S
C801        C802   1.403       .  A
C801        C806   1.409       .  A
C802        C803   1.402       .  A
C802        H807   1.084       .  S
C803        C804   1.414       .  A
C803        O808   1.371       .  S
C804        C805   1.407       .  A
C805        C806   1.402       .  A
C805        H809   1.083       .  S
C806        O810   1.373       .  S
O808        H812   0.992       .  S
O810        H811   0.992       .  S
C813        C814   1.403       .  A
C813        C818   1.408       .  A
C814        C815   1.401       .  A
C814        H819   1.084       .  S
C815        C816   1.407       .  A
C815        O820   1.372       .  S
C816        C817   1.402       .  A
C817        C818   1.397       .  A
C817        H821   1.084       .  S
C818        O822   1.372       .  S
O820        H824   0.992       .  S
O822        H823   0.992       .  S
C825        C826   1.406       .  A
C825        C830   1.412       .  A
C826        C827   1.400       .  A
C826        H831   1.083       .  S
C827        C828   1.413       .  A
C827        O832   1.372       .  S
C828        C829   1.406       .  A
C829        C830   1.399       .  A
C829        H833   1.083       .  S
C830        O834   1.372       .  S
O832        H836   0.992       .  S
O834        H835   0.992       .  S
C837        C838   1.403       .  A
C837        C842   1.407       .  A
C838        C839   1.403       .  A
C838        H843   1.084       .  S
C839        C840   1.411       .  A
C839        O844   1.372       .  S
C840        C841   1.405       .  A
C841        C842   1.399       .  A
C841        H845   1.084       .  S
C842        O846   1.372       .  S
O844        H848   0.992       .  S
O846        H847   0.992       .  S
C849        C850   1.407       .  A
C849        C854   1.414       .  A
C850        C851   1.401       .  A
C850        H855   1.083       .  S
C851        C852   1.411       .  A
C851        O856   1.372       .  S
C852        C853   1.405       .  A
C853        C854   1.403       .  A
C853        H857   1.084       .  S
C854        O858   1.371       .  S
O856        H860   0.992       .  S
O858        H859   0.992       .  S
C861        C862   1.403       .  A
C861        C866   1.406       .  A
C862        C863   1.402       .  A
C862        H867   1.084       .  S
C863        C864   1.406       .  A
C863        O868   1.372       .  S
C864        C865   1.402       .  A
C865        C866   1.399       .  A
C865        H869   1.084       .  S
C866        O870   1.371       .  S
O868        H872   0.992       .  S
O870        H871   0.992       .  S
C873        C874   1.407       .  A
C873        C878   1.411       .  A
C874        C875   1.400       .  A
C874        H879   1.083       .  S
C875        C876   1.408       .  A
C875        O880   1.372       .  S
C876        C877   1.406       .  A
C877        C878   1.400       .  A
C877        H881   1.084       .  S
C878        O882   1.372       .  S
O880        H884   0.992       .  S
O882        H883   0.992       .  S
C885        C886   1.403       .  A
C885        C890   1.407       .  A
C886        C887   1.397       .  A
C886        H891   1.084       .  S
C887        C888   1.411       .  A
C887        O892   1.372       .  S
C888        C889   1.406       .  A
C889        C890   1.398       .  A
C889        H893   1.083       .  S
C890        O894   1.372       .  S
O892        H896   0.992       .  S
O894        H895   0.992       .  S
C897        C898   1.408       .  A
C897        C902   1.415       .  A
C898        C899   1.397       .  A
C898        H903   1.083       .  S
C899        C900   1.404       .  A
C899        O904   1.371       .  S
C900        C901   1.400       .  A
C901        C902   1.402       .  A
C901        H905   1.084       .  S
C902        O906   1.373       .  S
O904        H908   0.992       .  S
O906        H907   0.992       .  S
C909        C910   1.402       .  A
C909        C914   1.407       .  A
C910        C911   1.399       .  A
C910        H915   1.084       .  S
C911        C912   1.408       .  A
C911        O916   1.372       .  S
C912        C913   1.405       .  A
C913        C914   1.401       .  A
C913        H917   1.084       .  S
C914        O918   1.371       .  S
O916        H920   0.992       .  S
O918        H919   0.992       .  S
C921        C922   1.401       .  A
C921        C926   1.404       .  A
C922        C923   1.400       .  A
C922        H927   1.084       .  S
C923        C924   1.416       .  A
C923        O928   1.372       .  S
C924        C925   1.407       .  A
C925        C926   1.399       .  A
C925        H929   1.083       .  S
C926        O930   1.371       .  S
O928        H932   0.992       .  S
O930        H931   0.992       .  S
C933        C934   1.404       .  A
C933        C938   1.410       .  A
C934        C935   1.400       .  A
C934        H939   1.083       .  S
C935        C936   1.414       .  A
C935        O940   1.372       .  S
C936        C937   1.406       .  A
C937        C938   1.398       .  A
C937        H941   1.083       .  S
C938        O942   1.372       .  S
O940        H944   0.992       .  S
O942        H943   0.992       .  S
C945        C946   1.402       .  A
C945        C950   1.409       .  A
C946        C947   1.398       .  A
C946        H951   1.084       .  S
C947        C948   1.412       .  A
C947        O952   1.371       .  S
C948        C949   1.408       .  A
C949        C950   1.403       .  A
C949        H953   1.083       .  S
C950        O954   1.372       .  S
O952        H956   0.992       .  S
O954        H955   0.992       .  S
C957        C958   1.406       .  A
C957        C962   1.410       .  A
C958        C959   1.400       .  A
C958        H963   1.083       .  S
C959        C960   1.405       .  A
C959        O964   1.371       .  S
C960        C961   1.403       .  A
C961        C962   1.400       .  A
C961        H965   1.084       .  S
C962        O966   1.372       .  S
O964        H968   0.992       .  S
O966        H967   0.992       .  S
