geometry optimzed in LAMMPS
_audit_creation_date              2020-11-30 
_audit_creation_method            'lammps2cif' 
_symmetry_space_group_name_H-M    'P1' 
_symmetry_Int_Tables_number       1 
_symmetry_cell_setting            triclinic 
loop_ 
_symmetry_equiv_pos_as_xyz 
  x,y,z 
_cell_length_a                    34.91219546 
_cell_length_b                    34.572332285747756 
_cell_length_c                    23.17811643069774 
_cell_angle_alpha                 90.56857755968531 
_cell_angle_beta                  89.0753753147893 
_cell_angle_gamma                 120.27107041438659 
loop_ 
_atom_site_label 
_atom_site_type_symbol 
_atom_site_fract_x 
_atom_site_fract_y 
_atom_site_fract_z 
_atom_site_charge 
O1          O  0.22806114  0.32968251  0.32029403    -0.85100
O2          O  0.15057496  0.24708176  0.29759342    -0.82200
C3          C  0.11736471  0.23870053  0.32959957     0.98300
O4          O  0.10266625  0.26562262  0.32718430    -0.82200
O5          O  0.10196729  0.34565882  0.30643525    -0.84800
C6          C  0.12803322  0.37821869  0.33835590     1.02900
O7          O  0.16970068  0.39516881  0.32904319    -0.77600
O8          O  0.24902246  0.39559469  0.28736525    -0.77800
C9          C  0.25480250  0.37165390  0.32284656     1.02800
O10         O  0.24315373  0.34641066  0.19693358    -0.85100
O11         O  0.16387800  0.26422244  0.17284802    -0.82200
C12         C  0.12197484  0.23966632  0.16779896     0.98400
O13         O  0.09831112  0.24821769  0.20181785    -0.82200
O14         O  0.10226399  0.32983344  0.18094807    -0.84800
C15         C  0.11675003  0.37159785  0.17880086     1.02800
O16         O  0.14662265  0.39648174  0.21352694    -0.77600
O17         O  0.22030502  0.39120135  0.16935014    -0.77800
C18         C  0.24825154  0.37820034  0.16386771     1.02800
Cr19       Cr  0.19391064  0.29949116  0.24720405     1.93700
Cr20       Cr  0.10604474  0.29977238  0.25387410     1.93200
Cr21       Cr  0.19389620  0.38894735  0.25000646     1.39100
O22         O  0.16441283  0.32912867  0.25092045    -1.22900
C23         C  0.20253966  0.09912273  0.13414636    -0.02300
C24         C  0.40382474  0.30242191  0.37295736    -0.02300
C25         C  0.20453195  0.10408823  0.37664721    -0.02300
C26         C  0.10756035  0.39693141  0.38584717    -0.02300
C27         C  0.09943853  0.39316892  0.13521982    -0.02300
C28         C  0.39675609  0.30926119  0.13327728    -0.02300
C29         C  0.29211531  0.40284841  0.12492628    -0.02300
C30         C  0.09216359  0.19277367  0.36459502    -0.02300
C31         C  0.39464253  0.09997386  0.36668387    -0.02300
C32         C  0.29702317  0.39358258  0.36301277    -0.02300
C33         C  0.39999403  0.10316942  0.12960008    -0.02300
C34         C  0.09776544  0.19608657  0.12667772    -0.02300
O35         O  0.27036240  0.16817391  0.32937589    -0.85100
O36         O  0.34691108  0.24810389  0.30795247    -0.82200
C37         C  0.38313887  0.25881770  0.33237168     0.98300
O38         O  0.40336212  0.23821844  0.31661700    -0.82200
O39         O  0.39977210  0.15375131  0.29048159    -0.84800
C40         C  0.37466354  0.12284757  0.32569795     1.02900
O41         O  0.33401106  0.11093260  0.32428029    -0.77600
O42         O  0.25094650  0.10185791  0.29775794    -0.77800
C43         C  0.24536086  0.12604056  0.33389858     1.02800
O44         O  0.25152652  0.15771297  0.20540911    -0.85100
O45         O  0.33471084  0.24177267  0.18590976    -0.82200
C46         C  0.37618694  0.26461763  0.17298502     0.98400
O47         O  0.40125027  0.25151104  0.19348337    -0.82200
O48         O  0.39441970  0.16807386  0.17002772    -0.84800
C49         C  0.37817171  0.12600662  0.16729454     1.02800
O50         O  0.34706924  0.10316414  0.20207832    -0.77600
O51         O  0.27393827  0.11280514  0.17639762    -0.77800
C52         C  0.24574829  0.12522693  0.17287360     1.02800
Cr53       Cr  0.30384360  0.20110657  0.25591266     1.93700
Cr54       Cr  0.39373302  0.20030880  0.24365283     1.93200
Cr55       Cr  0.30430984  0.11288497  0.25004678     1.39100
O56         O  0.33422904  0.17211334  0.24963203    -1.22900
C57         C  0.04650806  0.17343612  0.14336036     0.00100
C58         C  0.02436895  0.19465080  0.12055886    -0.11800
C59         C  0.47815558  0.17589645  0.12308220     0.02300
C60         C  0.45081358  0.13177896  0.14445443     0.00000
C61         C  0.47266430  0.11380205  0.17472967    -0.11700
C62         C  0.01918508  0.13506439  0.17776824     0.02200
H63         H  0.04371556  0.22569685  0.09756905     0.15200
H64         H  0.45332922  0.08176461  0.19445272     0.15200
C65         C  0.03531328  0.11477638  0.21643821     0.36800
C66         C  0.45981531  0.19762947  0.08988120     0.36700
N67         N  0.04546210  0.09342226  0.24327724    -0.43500
N68         N  0.44565982  0.21408286  0.06039886    -0.43500
C69         C  0.39396734  0.10390107  0.06049753     0.00100
C70         C  0.43193524  0.11901660  0.02521407    -0.11800
C71         C  0.43405632  0.13060943  0.46822650     0.02300
C72         C  0.39512629  0.11197399  0.43362642     0.00000
C73         C  0.35515079  0.08955569  0.46641026    -0.11700
C74         C  0.35411296  0.08275229  0.02733462     0.02200
H75         H  0.46310520  0.12552924  0.04257995     0.15200
H76         H  0.32440002  0.07148341  0.44329874     0.15200
C77         C  0.31714573  0.04044555  0.04442205     0.36800
C78         C  0.47563529  0.17095639  0.45767148     0.36700
N79         N  0.28798368  0.00429570  0.05163075    -0.43500
N80         N  0.50877621  0.20465204  0.45522914    -0.43500
C81         C  0.36701987  0.04594906  0.36447832     0.00100
C82         C  0.38619618  0.02221510  0.38805820    -0.11800
C83         C  0.37061189  0.47653639  0.37460647     0.02300
C84         C  0.32607334  0.44717799  0.35504340     0.00000
C85         C  0.30223806  0.46976621  0.35038677    -0.11700
C86         C  0.32128799  0.01665433  0.35027608     0.02200
H87         H  0.41770071  0.04095397  0.40973157     0.15200
H88         H  0.26661764  0.45043518  0.35014638     0.15200
C89         C  0.28789421  0.02886132  0.34662338     0.36800
C90         C  0.40628215  0.46761217  0.36742106     0.36700
N91         N  0.25780700  0.03405844  0.34374389    -0.43500
N92         N  0.43825916  0.46678769  0.35591333    -0.43500
C93         C  0.08829740  0.19663113  0.43275217     0.00100
C94         C  0.10814440  0.23802605  0.46331717    -0.11800
C95         C  0.11390493  0.24081672  0.02472781     0.02300
C96         C  0.09725202  0.20149787  0.05858325     0.00000
C97         C  0.07313333  0.16114974  0.02820459    -0.11700
C98         C  0.07096888  0.15771766  0.46850109     0.02200
H99         H  0.11979500  0.26816027  0.43922093     0.15200
H100        H  0.05565176  0.13056609  0.05199679     0.15200
C101        C  0.05578690  0.11269682  0.44830144     0.36800
C102        C  0.13436616  0.28381572  0.05220427     0.36700
N103        N  0.04443775  0.07582506  0.43673828    -0.43500
N104        N  0.15002349  0.31770916  0.07622040    -0.43500
C105        C  0.04237367  0.16566194  0.34156763     0.00100
C106        C  0.01549538  0.11847459  0.34206989    -0.11800
C107        C  0.46876148  0.09658651  0.33393851     0.02300
C108        C  0.44543124  0.11987083  0.34627860     0.00000
C109        C  0.47280223  0.16655425  0.34225498    -0.11700
C110        C  0.01800710  0.18747478  0.33012547     0.02200
H111        H  0.03110035  0.09849589  0.34264270     0.15200
H112        H  0.45935086  0.18832672  0.34775442     0.15200
C113        C  0.02371205  0.21014159  0.27710441     0.36800
C114        C  0.44960643  0.05675400  0.29878670     0.36700
N115        N  0.01985063  0.22383651  0.23383187    -0.43500
N116        N  0.43512310  0.02584142  0.26852724    -0.43500
C117        C  0.32101543  0.45602042  0.13633677     0.00100
C118        C  0.35476414  0.48254117  0.09603390    -0.11800
C119        C  0.38918109  0.02511376  0.10642534     0.02300
C120        C  0.38175499  0.05215831  0.14488202     0.00000
C121        C  0.35149429  0.02786410  0.19007176    -0.11700
C122        C  0.31939966  0.48167296  0.18440923     0.02200
H123        H  0.35135954  0.47540680  0.05092297     0.15200
H124        H  0.35069866  0.04433200  0.22938593     0.15200
C125        C  0.27972037  0.47018334  0.21639591     0.36800
C126        C  0.42865268  0.04001962  0.07131150     0.36700
N127        N  0.24877121  0.46678293  0.24015745    -0.43500
N128        N  0.45947193  0.04968127  0.04231746    -0.43500
C129        C  0.28830088  0.39613229  0.05624884     0.00100
C130        C  0.24999993  0.38531568  0.02404146    -0.11800
C131        C  0.24898900  0.37953880  0.46248778     0.02300
C132        C  0.28813802  0.39021735  0.43041946     0.00000
C133        C  0.32465318  0.39928565  0.46298669    -0.11700
C134        C  0.32528010  0.40045405  0.02229896     0.02200
H135        H  0.22104909  0.38120939  0.04665521     0.15200
H136        H  0.35456784  0.40637453  0.44058093     0.15200
C137        C  0.36968109  0.41810614  0.04309355     0.36800
C138        C  0.20717573  0.35850543  0.43427814     0.36700
N139        N  0.40654442  0.43804644  0.05574561    -0.43500
N140        N  0.17386354  0.34104596  0.41041472    -0.43500
C141        C  0.31726038  0.37759903  0.14296392     0.00100
C142        C  0.35843027  0.39895853  0.16991939    -0.11800
C143        C  0.38688300  0.38088368  0.16628250     0.02300
C144        C  0.37042290  0.33463944  0.15073053     0.00000
C145        C  0.32503008  0.31101353  0.13729910    -0.11700
C146        C  0.30050622  0.33198058  0.12777627     0.02200
H147        H  0.37197876  0.43345869  0.18361068     0.15200
H148        H  0.31066525  0.27723668  0.12326001     0.15200
C149        C  0.26157348  0.30809788  0.09291114     0.36800
C150        C  0.43182965  0.41642371  0.16266191     0.36700
N151        N  0.23247760  0.29251993  0.06103792    -0.43500
N152        N  0.46381997  0.45077003  0.15731791    -0.43500
C153        C  0.04688752  0.37349531  0.14075316     0.00100
C154        C  0.02709768  0.38392486  0.09615016    -0.11800
C155        C  0.48164428  0.37025336  0.09533023     0.02300
C156        C  0.45027438  0.34053358  0.13861596     0.00000
C157        C  0.47146420  0.33512467  0.18613728    -0.11700
C158        C  0.01644450  0.34675716  0.18543212     0.02200
H159        H  0.04902002  0.40646777  0.06272051     0.15200
H160        H  0.45238139  0.32005774  0.22508103     0.15200
C161        C  0.02526057  0.32313400  0.22761184     0.36800
C162        C  0.47680684  0.40159590  0.06094793     0.36700
N163        N  0.02580282  0.29934271  0.26131975    -0.43500
N164        N  0.48119053  0.43203142  0.03516471    -0.43500
C165        C  0.11084081  0.38294304  0.07220703     0.00100
C166        C  0.15138979  0.40923652  0.04183407    -0.11800
C167        C  0.15400107  0.40762750  0.48113678     0.02300
C168        C  0.11474708  0.38269370  0.44849500     0.00000
C169        C  0.08059020  0.34628547  0.48027274    -0.11700
C170        C  0.07974879  0.34591751  0.04051661     0.02200
H171        H  0.18172625  0.43119503  0.06310634     0.15200
H172        H  0.05412213  0.31715595  0.46103795     0.15200
C173        C  0.04655401  0.30800957  0.07081232     0.36800
C174        C  0.19662052  0.43600745  0.45500694     0.36700
N175        N  0.02191723  0.28266357  0.10359862    -0.43500
N176        N  0.23197907  0.45912737  0.43717801    -0.43500
C177        C  0.12160391  0.16939583  0.35940279     0.00100
C178        C  0.15976820  0.18719251  0.39376569    -0.11800
C179        C  0.18948704  0.17122366  0.39130480     0.02300
C180        C  0.17759768  0.12924861  0.36332185     0.00000
C181        C  0.13943769  0.11266963  0.32824263    -0.11700
C182        C  0.12243127  0.14155043  0.31481435     0.02200
H183        H  0.16676294  0.21434201  0.42271223     0.15200
H184        H  0.12900070  0.08275852  0.30301014     0.15200
C185        C  0.14797519  0.16943462  0.26755616     0.36800
C186        C  0.22938811  0.19697111  0.42372323     0.36700
N187        N  0.17460610  0.19542737  0.23662335    -0.43500
N188        N  0.26007346  0.21652027  0.45244439    -0.43500
C189        C  0.13141077  0.45037439  0.37971275     0.00100
C190        C  0.14483822  0.47813189  0.42776751    -0.11800
C191        C  0.17732661  0.02252860  0.42214356     0.02300
C192        C  0.17945601  0.04931102  0.37323328     0.00000
C193        C  0.15727584  0.02206917  0.32442673    -0.11700
C194        C  0.13579542  0.47373160  0.32758377     0.02200
H195        H  0.13497256  0.46504717  0.47087386     0.15200
H196        H  0.15717503  0.03764226  0.28423860     0.15200
C197        C  0.10854660  0.44610020  0.28319802     0.36800
C198        C  0.21293704  0.03331105  0.46104220     0.36700
N199        N  0.08171192  0.41659588  0.25747603    -0.43500
N200        N  0.24002235  0.03857511  0.49327814    -0.43500
C201        C  0.38772003  0.29718328  0.06665049     0.00100
C202        C  0.39100689  0.33126324  0.03242971    -0.11800
C203        C  0.39936388  0.33400488  0.47392559     0.02300
C204        C  0.39539699  0.29731071  0.44095377     0.00000
C205        C  0.38164864  0.25800803  0.47345377    -0.11700
C206        C  0.37924875  0.25788685  0.03539805     0.02200
H207        H  0.39305340  0.35998308  0.05301313     0.15200
H208        H  0.37421510  0.22799605  0.45089797     0.15200
C209        C  0.36467489  0.21627272  0.06395334     0.36800
C210        C  0.41425335  0.37770508  0.45218426     0.36700
N211        N  0.35243887  0.18218667  0.08599256    -0.43500
N212        N  0.42823491  0.41484016  0.44122005    -0.43500
C213        C  0.45687180  0.32857153  0.36844580     0.00100
C214        C  0.48375968  0.37557966  0.37288202    -0.11800
C215        C  0.03026950  0.39861745  0.38068123     0.02300
C216        C  0.05487095  0.37550250  0.37759419     0.00000
C217        C  0.02763901  0.32851848  0.37300728    -0.11700
C218        C  0.48104399  0.30612888  0.37687255     0.02200
H219        H  0.46880841  0.39580866  0.37386584     0.15200
H220        H  0.04268967  0.30773855  0.37273232     0.15200
C221        C  0.46034214  0.26229042  0.40194617     0.36800
C222        C  0.04875775  0.44519042  0.39617644     0.36700
N223        N  0.44271935  0.22766803  0.42395429    -0.43500
N224        N  0.06138765  0.48217914  0.40861135    -0.43500
C225        C  0.37548109  0.32505252  0.35424003     0.00100
C226        C  0.33152486  0.30384550  0.37567976    -0.11800
C227        C  0.30496082  0.32318970  0.37428731     0.02300
C228        C  0.32064351  0.36572020  0.34858055     0.00000
C229        C  0.35910791  0.38111032  0.31375577    -0.11700
C230        C  0.38682226  0.36188316  0.31759667     0.02200
H231        H  0.31928255  0.27268332  0.39793585     0.15200
H232        H  0.36914895  0.40991569  0.28649167     0.15200
C233        C  0.42711774  0.38157257  0.28576539     0.36800
C234        C  0.26405890  0.30094255  0.40667768     0.36700
N235        N  0.46165948  0.39826090  0.26424139    -0.43500
N236        N  0.23211240  0.28531032  0.43463173    -0.43500
C237        C  0.12494866  0.44650194  0.14411231     0.00100
C238        C  0.17141456  0.47099972  0.14506574    -0.11800
C239        C  0.19655455  0.01810465  0.14432092     0.02300
C240        C  0.17709067  0.04607787  0.14818115     0.00000
C241        C  0.13082657  0.02051552  0.15475334    -0.11700
C242        C  0.10569690  0.47381141  0.15345428     0.02200
H243        H  0.18935273  0.45310398  0.14696735     0.15200
H244        H  0.11052877  0.03479210  0.15351420     0.15400
C245        C  0.06214989  0.45819657  0.17510289     0.36800
C246        C  0.24242953  0.03360451  0.14320173     0.36700
N247        N  0.03012897  0.44916044  0.19999973    -0.43500
N248        N  0.27892931  0.04327956  0.14740970    -0.43500
C249        C  0.20751262  0.09996857  0.06669162     0.00100
C250        C  0.24877245  0.12083718  0.03678860    -0.11800
C251        C  0.25174783  0.12696628  0.47557976     0.02300
C252        C  0.21253951  0.11233584  0.44318802     0.00000
C253        C  0.17274138  0.09585143  0.47448076    -0.11700
C254        C  0.16907175  0.08497498  0.03169078     0.02200
H255        H  0.27809029  0.13008794  0.06079626     0.15200
H256        H  0.14202153  0.08391118  0.45095714     0.15200
C257        C  0.12373839  0.05377099  0.04732853     0.36800
C258        C  0.29339524  0.14158559  0.44683896     0.36700
N259        N  0.08655164  0.02690634  0.05174167    -0.43500
N260        N  0.32633944  0.15226699  0.42254675    -0.43500
C261        C  0.17751237  0.12688683  0.14233267     0.00100
C262        C  0.13583426  0.11030545  0.16845532    -0.11800
C263        C  0.10635458  0.12330120  0.14807809     0.02300
C264        C  0.12298423  0.16865259  0.13213530     0.00000
C265        C  0.16772785  0.19028643  0.11397314    -0.11700
C266        C  0.19410926  0.17001824  0.11654853     0.02200
H267        H  0.12505874  0.08666720  0.20340759     0.15200
H268        H  0.18119775  0.22247143  0.09493946     0.15200
C269        C  0.23768512  0.19410999  0.09116381     0.36800
C270        C  0.06571481  0.08674350  0.12540239     0.36700
N271        N  0.27227414  0.21192861  0.06925170    -0.43500
N272        N  0.03293730  0.05673390  0.10900173    -0.43500
O273        O  0.22806122  0.32968237  0.82029425    -0.85100
O274        O  0.15057504  0.24708156  0.79759362    -0.82200
C275        C  0.11736464  0.23870013  0.82959956     0.98300
O276        O  0.10266608  0.26562215  0.82718438    -0.82200
O277        O  0.10196754  0.34565862  0.80643559    -0.84800
C278        C  0.12803346  0.37821864  0.83835603     1.02900
O279        O  0.16970093  0.39516891  0.82904310    -0.77600
O280        O  0.24902257  0.39559456  0.78736537    -0.77800
C281        C  0.25480252  0.37165377  0.82284680     1.02800
O282        O  0.24315388  0.34641050  0.69693367    -0.85100
O283        O  0.16387809  0.26422227  0.67284831    -0.82200
C284        C  0.12197493  0.23966621  0.66779922     0.98400
O285        O  0.09831119  0.24821753  0.70181813    -0.82200
O286        O  0.10226409  0.32983321  0.68094833    -0.84800
C287        C  0.11675023  0.37159762  0.67880087     1.02800
O288        O  0.14662291  0.39648157  0.71352680    -0.77600
O289        O  0.22030513  0.39120110  0.66935002    -0.77800
C290        C  0.24825166  0.37820011  0.66386764     1.02800
Cr291      Cr  0.19391075  0.29949099  0.74720427     1.93700
Cr292      Cr  0.10604482  0.29977215  0.75387435     1.93200
Cr293      Cr  0.19389636  0.38894718  0.75000641     1.39100
O294        O  0.16441293  0.32912847  0.75092065    -1.22900
C295        C  0.20253946  0.09912243  0.63414616    -0.02300
C296        C  0.40382435  0.30242146  0.87295730    -0.02300
C297        C  0.20453207  0.10408799  0.87664711    -0.02300
C298        C  0.10756053  0.39693146  0.88584719    -0.02300
C299        C  0.09943880  0.39316862  0.63521961    -0.02300
C300        C  0.39675636  0.30926117  0.63327742    -0.02300
C301        C  0.29211542  0.40284817  0.62492615    -0.02300
C302        C  0.09216360  0.19277324  0.86459487    -0.02300
C303        C  0.39464235  0.09997353  0.86668382    -0.02300
C304        C  0.29702303  0.39358240  0.86301315    -0.02300
C305        C  0.39999403  0.10316931  0.62960012    -0.02300
C306        C  0.09776553  0.19608660  0.62667793    -0.02300
O307        O  0.27036253  0.16817372  0.82937572    -0.85100
O308        O  0.34691105  0.24810392  0.80795174    -0.82200
C309        C  0.38313853  0.25881736  0.83237153     0.98300
O310        O  0.40336153  0.23821773  0.81661746    -0.82200
O311        O  0.39977192  0.15375106  0.79048172    -0.84800
C312        C  0.37466333  0.12284724  0.82569793     1.02900
O313        O  0.33401084  0.11093216  0.82428008    -0.77600
O314        O  0.25094650  0.10185773  0.79775759    -0.77800
C315        C  0.24536095  0.12604036  0.83389837     1.02800
O316        O  0.25152629  0.15771257  0.70540905    -0.85100
O317        O  0.33471081  0.24177217  0.68590913    -0.82200
C318        C  0.37618705  0.26461747  0.67298503     0.98400
O319        O  0.40125039  0.25151113  0.69348401    -0.82200
O320        O  0.39441996  0.16807391  0.67002788    -0.84800
C321        C  0.37817181  0.12600665  0.66729446     1.02800
O322        O  0.34706919  0.10316410  0.70207800    -0.77600
O323        O  0.27393814  0.11280488  0.67639738    -0.77800
C324        C  0.24574808  0.12522659  0.67287346     1.02800
Cr325      Cr  0.30384357  0.20110632  0.75591231     1.93700
Cr326      Cr  0.39373298  0.20030862  0.74365308     1.93200
Cr327      Cr  0.30430979  0.11288473  0.75004650     1.39100
O328        O  0.33422901  0.17211311  0.74963187    -1.22900
C329        C  0.04650811  0.17343591  0.64336076     0.00100
C330        C  0.02436893  0.19465052  0.62055936    -0.11800
C331        C  0.47815571  0.17589610  0.62308226     0.02300
C332        C  0.45081360  0.13177867  0.64445453     0.00000
C333        C  0.47266420  0.11380161  0.67472986    -0.11700
C334        C  0.01918515  0.13506404  0.67776848     0.02200
H335        H  0.04371549  0.22569650  0.59756962     0.15200
H336        H  0.45332912  0.08176431  0.69445280     0.15200
C337        C  0.03531339  0.11477587  0.71643819     0.36800
C338        C  0.45981555  0.19762926  0.58988141     0.36700
N339        N  0.04546227  0.09342173  0.74327705    -0.43500
N340        N  0.44566001  0.21408268  0.56039917    -0.43500
C341        C  0.39396737  0.10390092  0.56049748     0.00100
C342        C  0.43193532  0.11901639  0.52521403    -0.11800
C343        C  0.43405623  0.13060943  0.96822648     0.02300
C344        C  0.39512616  0.11197369  0.93362640     0.00000
C345        C  0.35515066  0.08955521  0.96641028    -0.11700
C346        C  0.35411303  0.08275232  0.52733448     0.02200
H347        H  0.46310517  0.12552896  0.54257983     0.15200
H348        H  0.32439996  0.07148270  0.94329885     0.15200
C349        C  0.31714585  0.04044525  0.54442129     0.36800
C350        C  0.47563520  0.17095643  0.95767143     0.36700
N351        N  0.28798377  0.00429539  0.55162937    -0.43500
N352        N  0.50877609  0.20465210  0.95522931    -0.43500
C353        C  0.36701973  0.04594877  0.86447817     0.00100
C354        C  0.38619615  0.02221485  0.88805797    -0.11800
C355        C  0.37061185  0.47653617  0.87460666     0.02300
C356        C  0.32607324  0.44717779  0.85504382     0.00000
C357        C  0.30223797  0.46976603  0.85038716    -0.11700
C358        C  0.32128782  0.01665403  0.85027599     0.02200
H359        H  0.41770055  0.04095357  0.90973124     0.15200
H360        H  0.26661756  0.45043502  0.85014676     0.15200
C361        C  0.28789395  0.02886091  0.84662306     0.36800
C362        C  0.40628209  0.46761193  0.86742097     0.36700
N363        N  0.25780666  0.03405788  0.84374294    -0.43500
N364        N  0.43825909  0.46678750  0.85591305    -0.43500
C365        C  0.08829742  0.19663070  0.93275197     0.00100
C366        C  0.10814412  0.23802565  0.96331693    -0.11800
C367        C  0.11390532  0.24081709  0.52472808     0.02300
C368        C  0.09725214  0.20149816  0.55858349     0.00000
C369        C  0.07313315  0.16115013  0.52820479    -0.11700
C370        C  0.07096919  0.15771723  0.96850087     0.02200
H371        H  0.11979449  0.26815985  0.93922078     0.15200
H372        H  0.05565127  0.13056650  0.55199698     0.15200
C373        C  0.05578804  0.11269654  0.94830116     0.36800
C374        C  0.13436707  0.28381611  0.55220459     0.36700
N375        N  0.04443961  0.07582497  0.93673772    -0.43500
N376        N  0.15002469  0.31770946  0.57622096    -0.43500
C377        C  0.04237366  0.16566142  0.84156755     0.00100
C378        C  0.01549533  0.11847401  0.84207001    -0.11800
C379        C  0.46876141  0.09658620  0.83393861     0.02300
C380        C  0.44543104  0.11987045  0.84627850     0.00000
C381        C  0.47280197  0.16655384  0.84225499    -0.11700
C382        C  0.01800714  0.18747432  0.83012561     0.02200
H383        H  0.03110021  0.09849534  0.84264279     0.15200
H384        H  0.45935052  0.18832634  0.84775464     0.15200
C385        C  0.02371194  0.21014101  0.77710453     0.36800
C386        C  0.44960669  0.05675376  0.79878667     0.36700
N387        N  0.01985041  0.22383571  0.73383187    -0.43500
N388        N  0.43512377  0.02584125  0.76852712    -0.43500
C389        C  0.32101562  0.45602023  0.63633666     0.00100
C390        C  0.35476430  0.48254103  0.59603371    -0.11800
C391        C  0.38918109  0.02511361  0.60642607     0.02300
C392        C  0.38175476  0.05215820  0.64488228     0.00000
C393        C  0.35149390  0.02786406  0.69007200    -0.11700
C394        C  0.31939990  0.48167275  0.68440917     0.02200
H395        H  0.35135966  0.47540664  0.55092287     0.15200
H396        H  0.35069819  0.04433183  0.72938596     0.15200
C397        C  0.27972068  0.47018310  0.71639602     0.36800
C398        C  0.42865278  0.04001946  0.57131258     0.36700
N399        N  0.24877157  0.46678272  0.74015771    -0.43500
N400        N  0.45947215  0.04968112  0.54231885    -0.43500
C401        C  0.28830103  0.39613207  0.55624867     0.00100
C402        C  0.25000006  0.38531553  0.52404131    -0.11800
C403        C  0.24898871  0.37953882  0.96248797     0.02300
C404        C  0.28813774  0.39021720  0.93041974     0.00000
C405        C  0.32465289  0.39928549  0.96298695    -0.11700
C406        C  0.32528027  0.40045391  0.52229876     0.02200
H407        H  0.22104948  0.38120952  0.54665481     0.15200
H408        H  0.35456751  0.40637431  0.94058121     0.15200
C409        C  0.36968124  0.41810601  0.54309341     0.36800
C410        C  0.20717540  0.35850522  0.93427837     0.36700
N411        N  0.40654459  0.43804648  0.55574543    -0.43500
N412        N  0.17386311  0.34104556  0.91041505    -0.43500
C413        C  0.31726046  0.37759879  0.64296380     0.00100
C414        C  0.35843029  0.39895838  0.66991947    -0.11800
C415        C  0.38688308  0.38088360  0.66628254     0.02300
C416        C  0.37042313  0.33463938  0.65073063     0.00000
C417        C  0.32503037  0.31101342  0.63729903    -0.11700
C418        C  0.30050644  0.33198038  0.62777610     0.02200
H419        H  0.37197859  0.43345833  0.68361091     0.15200
H420        H  0.31066569  0.27723665  0.62325968     0.15200
C421        C  0.26157406  0.30809765  0.59291042     0.36800
C422        C  0.43182965  0.41642378  0.66266213     0.36700
N423        N  0.23247866  0.29251941  0.56103646    -0.43500
N424        N  0.46381976  0.45077032  0.65731855    -0.43500
C425        C  0.04688774  0.37349488  0.64075280     0.00100
C426        C  0.02709778  0.38392409  0.59614957    -0.11800
C427        C  0.48164447  0.37025315  0.59533019     0.02300
C428        C  0.45027465  0.34053363  0.63861616     0.00000
C429        C  0.47146450  0.33512473  0.68613742    -0.11700
C430        C  0.01644478  0.34675699  0.68543197     0.02200
H431        H  0.04902004  0.40646680  0.56271969     0.15200
H432        H  0.45238170  0.32005788  0.72508128     0.15200
C433        C  0.02526085  0.32313379  0.72761164     0.36800
C434        C  0.47680734  0.40159627  0.56094860     0.36700
N435        N  0.02580343  0.29934246  0.76131923    -0.43500
N436        N  0.48119118  0.43203198  0.53516574    -0.43500
C437        C  0.11084128  0.38294277  0.57220684     0.00100
C438        C  0.15139008  0.40923664  0.54183365    -0.11800
C439        C  0.15400101  0.40762747  0.98113721     0.02300
C440        C  0.11474703  0.38269383  0.94849522     0.00000
C441        C  0.08058981  0.34628592  0.98027296    -0.11700
C442        C  0.07974944  0.34591708  0.54051647     0.02200
H443        H  0.18172648  0.43119540  0.56310560     0.15200
H444        H  0.05412152  0.31715653  0.96103806     0.15200
C445        C  0.04655495  0.30800920  0.57081229     0.36800
C446        C  0.19662059  0.43600753  0.95500766     0.36700
N447        N  0.02191819  0.28266334  0.60359881    -0.43500
N448        N  0.23197929  0.45912749  0.93717907    -0.43500
C449        C  0.12160406  0.16939557  0.85940255     0.00100
C450        C  0.15976834  0.18719231  0.89376541    -0.11800
C451        C  0.18948714  0.17122342  0.89130472     0.02300
C452        C  0.17759775  0.12924834  0.86332183     0.00000
C453        C  0.13943788  0.11266943  0.82824240    -0.11700
C454        C  0.12243145  0.14155021  0.81481410     0.02200
H455        H  0.16676309  0.21434194  0.92271183     0.15200
H456        H  0.12900114  0.08275849  0.80300965     0.15200
C457        C  0.14797535  0.16943443  0.76755592     0.36800
C458        C  0.22938815  0.19697080  0.92372320     0.36700
N459        N  0.17460627  0.19542724  0.73662315    -0.43500
N460        N  0.26007344  0.21651996  0.95244452    -0.43500
C461        C  0.13141095  0.45037440  0.87971266     0.00100
C462        C  0.14483844  0.47813193  0.92776731    -0.11800
C463        C  0.17732690  0.02252836  0.92214333     0.02300
C464        C  0.17945615  0.04931078  0.87323314     0.00000
C465        C  0.15727584  0.02206892  0.82442662    -0.11700
C466        C  0.13579549  0.47373161  0.82758371     0.02200
H467        H  0.13497273  0.46504719  0.97087383     0.15200
H468        H  0.15717505  0.03764196  0.78423852     0.15200
C469        C  0.10854668  0.44610017  0.78319795     0.36800
C470        C  0.21293737  0.03331083  0.96104195     0.36700
N471        N  0.08171228  0.41659589  0.75747576    -0.43500
N472        N  0.24002269  0.03857491  0.99327791    -0.43500
C473        C  0.38772049  0.29718344  0.56665058     0.00100
C474        C  0.39100758  0.33126359  0.53242995    -0.11800
C475        C  0.39936329  0.33400451  0.97392540     0.02300
C476        C  0.39539651  0.29731029  0.94095372     0.00000
C477        C  0.38164814  0.25800766  0.97345387    -0.11700
C478        C  0.37924906  0.25788701  0.53539796     0.02200
H479        H  0.39305414  0.35998335  0.55301342     0.15200
H480        H  0.37421456  0.22799557  0.95089824     0.15200
C481        C  0.36467511  0.21627268  0.56395295     0.36800
C482        C  0.41425282  0.37770474  0.95218397     0.36700
N483        N  0.35243923  0.18218646  0.58599159    -0.43500
N484        N  0.42823438  0.41483978  0.94121955    -0.43500
C485        C  0.45687145  0.32857105  0.86844567     0.00100
C486        C  0.48375938  0.37557915  0.87288183    -0.11800
C487        C  0.03026967  0.39861762  0.88068118     0.02300
C488        C  0.05487112  0.37550265  0.87759395     0.00000
C489        C  0.02763919  0.32851864  0.87300677    -0.11700
C490        C  0.48104367  0.30612839  0.87687224     0.02200
H491        H  0.46880802  0.39580819  0.87386598     0.15200
H492        H  0.04268984  0.30773869  0.87273209     0.15200
C493        C  0.46034179  0.26228998  0.90194607     0.36800
C494        C  0.04875791  0.44519050  0.89617701     0.36700
N495        N  0.44271886  0.22766772  0.92395451    -0.43500
N496        N  0.06138786  0.48217916  0.90861244    -0.43500
C497        C  0.37548069  0.32505205  0.85423997     0.00100
C498        C  0.33152441  0.30384498  0.87567963    -0.11800
C499        C  0.30496053  0.32318939  0.87428782     0.02300
C500        C  0.32064330  0.36571994  0.84858110     0.00000
C501        C  0.35910761  0.38111002  0.81375607    -0.11700
C502        C  0.38682192  0.36188280  0.81759677     0.02200
H503        H  0.31928205  0.27268265  0.89793547     0.15200
H504        H  0.36914856  0.40991527  0.78649207     0.15200
C505        C  0.42711746  0.38157239  0.78576557     0.36800
C506        C  0.26405877  0.30094236  0.90667873     0.36700
N507        N  0.46165930  0.39826099  0.76424170    -0.43500
N508        N  0.23211250  0.28531015  0.93463325    -0.43500
C509        C  0.12494894  0.44650165  0.64411209     0.00100
C510        C  0.17141482  0.47099947  0.64506557    -0.11800
C511        C  0.19655453  0.01810442  0.64432067     0.02300
C512        C  0.17709051  0.04607754  0.64818077     0.00000
C513        C  0.13082633  0.02051519  0.65475306    -0.11700
C514        C  0.10569717  0.47381111  0.65345411     0.02200
H515        H  0.18935303  0.45310362  0.64696708     0.15200
H516        H  0.11052857  0.03479137  0.65351407     0.15400
C517        C  0.06215001  0.45819613  0.67510198     0.36800
C518        C  0.24242958  0.03360440  0.64320078     0.36700
N519        N  0.03012879  0.44915987  0.69999820    -0.43500
N520        N  0.27892945  0.04327965  0.64740823    -0.43500
C521        C  0.20751249  0.09996841  0.56669146     0.00100
C522        C  0.24877235  0.12083727  0.53678850    -0.11800
C523        C  0.25174793  0.12696599  0.97557978     0.02300
C524        C  0.21253960  0.11233555  0.94318799     0.00000
C525        C  0.17274152  0.09585122  0.97448077    -0.11700
C526        C  0.16907164  0.08497486  0.53169065     0.02200
H527        H  0.27809027  0.13008813  0.56079620     0.15200
H528        H  0.14202159  0.08391092  0.95095708     0.15200
C529        C  0.12373834  0.05377055  0.54732826     0.36800
C530        C  0.29339531  0.14158512  0.94683907     0.36700
N531        N  0.08655164  0.02690582  0.55174144    -0.43500
N532        N  0.32633961  0.15226643  0.92254700    -0.43500
C533        C  0.17751220  0.12688658  0.64233250     0.00100
C534        C  0.13583406  0.11030527  0.66845502    -0.11800
C535        C  0.10635455  0.12330122  0.64807779     0.02300
C536        C  0.12298434  0.16865267  0.63213534     0.00000
C537        C  0.16772804  0.19028654  0.61397338    -0.11700
C538        C  0.19410927  0.17001811  0.61654861     0.02200
H539        H  0.12505839  0.08666697  0.70340733     0.15200
H540        H  0.18119805  0.22247157  0.59494012     0.15200
C541        C  0.23768517  0.19410979  0.59116385     0.36800
C542        C  0.06571491  0.08674366  0.62540152     0.36700
N543        N  0.27227422  0.21192840  0.56925185    -0.43500
N544        N  0.03293756  0.05673404  0.60900063    -0.43500
O545        O  0.22806079  0.82968237  0.32029441    -0.85100
O546        O  0.15057459  0.74708162  0.29759347    -0.82200
C547        C  0.11736417  0.73870025  0.32959929     0.98300
O548        O  0.10266558  0.76562224  0.32718393    -0.82200
O549        O  0.10196717  0.84565880  0.30643537    -0.84800
C550        C  0.12803312  0.87821874  0.33835590     1.02900
O551        O  0.16970058  0.89516901  0.32904310    -0.77600
O552        O  0.24902219  0.89559459  0.28736563    -0.77800
C553        C  0.25480219  0.87165376  0.32284699     1.02800
O554        O  0.24315337  0.84641047  0.19693382    -0.85100
O555        O  0.16387766  0.76422232  0.17284820    -0.82200
C556        C  0.12197449  0.73966633  0.16779889     0.98400
O557        O  0.09831071  0.74821780  0.20181754    -0.82200
O558        O  0.10226385  0.82983362  0.18094816    -0.84800
C559        C  0.11674997  0.87159800  0.17880089     1.02800
O560        O  0.14662265  0.89648191  0.21352692    -0.77600
O561        O  0.22030484  0.89120128  0.16935025    -0.77800
C562        C  0.24825124  0.87820014  0.16386784     1.02800
Cr563      Cr  0.19391027  0.79949101  0.24720429     1.93700
Cr564      Cr  0.10604438  0.79977235  0.25387400     1.93200
Cr565      Cr  0.19389602  0.88894734  0.25000653     1.39100
O566        O  0.16441249  0.82912858  0.25092056    -1.22900
C567        C  0.20253936  0.59912281  0.13414658    -0.02300
C568        C  0.40382452  0.80242176  0.37295778    -0.02300
C569        C  0.20453214  0.60408841  0.37664759    -0.02300
C570        C  0.10756029  0.89693139  0.38584718    -0.02300
C571        C  0.09943855  0.89316896  0.13521973    -0.02300
C572        C  0.39675634  0.80926161  0.13327811    -0.02300
C573        C  0.29211500  0.90284807  0.12492631    -0.02300
C574        C  0.09216315  0.69277337  0.36459458    -0.02300
C575        C  0.39464244  0.59997390  0.36668407    -0.02300
C576        C  0.29702290  0.89358239  0.36301331    -0.02300
C577        C  0.39999409  0.60316970  0.12960027    -0.02300
C578        C  0.09776507  0.69608664  0.12667761    -0.02300
O579        O  0.27036276  0.66817421  0.32937627    -0.85100
O580        O  0.34691128  0.74810428  0.30795210    -0.82200
C581        C  0.38313870  0.75881767  0.33237200     0.98300
O582        O  0.40336172  0.73821807  0.31661792    -0.82200
O583        O  0.39977208  0.65375131  0.29048166    -0.84800
C584        C  0.37466351  0.62284767  0.32569808     1.02900
O585        O  0.33401103  0.61093272  0.32428030    -0.77600
O586        O  0.25094664  0.60185823  0.29775806    -0.77800
C587        C  0.24536112  0.62604084  0.33389891     1.02800
O588        O  0.25152630  0.65771305  0.20540948    -0.85100
O589        O  0.33471105  0.74177266  0.18590968    -0.82200
C590        C  0.37618728  0.76461807  0.17298573     0.98400
O591        O  0.40125072  0.75151178  0.19348457    -0.82200
O592        O  0.39442036  0.66807454  0.17002803    -0.84800
C593        C  0.37817199  0.62600722  0.16729450     1.02800
O594        O  0.34706928  0.60316473  0.20207795    -0.77600
O595        O  0.27393821  0.61280546  0.17639762    -0.77800
C596        C  0.24574807  0.62522708  0.17287383     1.02800
Cr597      Cr  0.30384372  0.70110679  0.25591272     1.93700
Cr598      Cr  0.39373318  0.70030909  0.24365336     1.93200
Cr599      Cr  0.30430990  0.61288527  0.25004671     1.39100
O600        O  0.33422916  0.67211361  0.24963206    -1.22900
C601        C  0.04650772  0.67343599  0.14336060     0.00100
C602        C  0.02436860  0.69465067  0.12055921    -0.11800
C603        C  0.47815576  0.67589640  0.12308188     0.02300
C604        C  0.45081365  0.63177915  0.14445462     0.00000
C605        C  0.47266412  0.61380233  0.17473072    -0.11700
C606        C  0.01918474  0.63506407  0.17776824     0.02200
H607        H  0.04371522  0.72569664  0.09756945     0.15200
H608        H  0.45332897  0.58176544  0.19445411     0.15200
C609        C  0.03531288  0.61477568  0.21643777     0.36800
C610        C  0.45981547  0.69762923  0.08988049     0.36700
N611        N  0.04546164  0.59342130  0.24327637    -0.43500
N612        N  0.44565959  0.71408218  0.06039804    -0.43500
C613        C  0.39396735  0.60390099  0.06049764     0.00100
C614        C  0.43193524  0.61901607  0.02521425    -0.11800
C615        C  0.43405626  0.63060922  0.46822678     0.02300
C616        C  0.39512621  0.61197385  0.43362674     0.00000
C617        C  0.35515072  0.58955541  0.46641065    -0.11700
C618        C  0.35411298  0.58275237  0.02733469     0.02200
H619        H  0.46310503  0.62552862  0.04258017     0.15200
H620        H  0.32439998  0.57148302  0.44329918     0.15200
C621        C  0.31714561  0.54044564  0.04442210     0.36800
C622        C  0.47563539  0.67095596  0.45767163     0.36700
N623        N  0.28798351  0.50429587  0.05163081    -0.43500
N624        N  0.50877646  0.70465140  0.45522951    -0.43500
C625        C  0.36701983  0.54594916  0.36447831     0.00100
C626        C  0.38619618  0.52221515  0.38805804    -0.11800
C627        C  0.37061177  0.97653626  0.37460721     0.02300
C628        C  0.32607320  0.94717781  0.35504410     0.00000
C629        C  0.30223800  0.96976609  0.35038723    -0.11700
C630        C  0.32128798  0.51665445  0.35027578     0.02200
H631        H  0.41770054  0.54095381  0.40973164     0.15200
H632        H  0.26661758  0.95043508  0.35014681     0.15200
C633        C  0.28789413  0.52886132  0.34662292     0.36800
C634        C  0.40628213  0.96761215  0.36742211     0.36700
N635        N  0.25780670  0.53405813  0.34374307    -0.43500
N636        N  0.43825940  0.96678804  0.35591488    -0.43500
C637        C  0.08829684  0.69663085  0.43275167     0.00100
C638        C  0.10814403  0.73802583  0.46331667    -0.11800
C639        C  0.11390474  0.74081696  0.02472778     0.02300
C640        C  0.09725146  0.70149806  0.05858319     0.00000
C641        C  0.07313212  0.66115000  0.02820461    -0.11700
C642        C  0.07096818  0.65771737  0.46850058     0.02200
H643        H  0.11979490  0.76816003  0.43922057     0.15200
H644        H  0.05565006  0.63056642  0.05199687     0.15200
C645        C  0.05578586  0.61269648  0.44830086     0.36800
C646        C  0.13436663  0.78381599  0.05220432     0.36700
N647        N  0.04443622  0.57582465  0.43673750    -0.43500
N648        N  0.15002444  0.81770933  0.07622073    -0.43500
C649        C  0.04237333  0.66566157  0.34156682     0.00100
C650        C  0.01549505  0.61847422  0.34206901    -0.11800
C651        C  0.46876151  0.59658663  0.33393927     0.02300
C652        C  0.44543115  0.61987091  0.34627880     0.00000
C653        C  0.47280215  0.66655430  0.34225513    -0.11700
C654        C  0.01800675  0.68747439  0.33012467     0.02200
H655        H  0.03110004  0.59849553  0.34264169     0.15200
H656        H  0.45935069  0.68832688  0.34775462     0.15200
C657        C  0.02371159  0.71014122  0.27710367     0.36800
C658        C  0.44960687  0.55675434  0.29878701     0.36700
N659        N  0.01984996  0.72383623  0.23383136    -0.43500
N660        N  0.43512400  0.52584200  0.26852720    -0.43500
C661        C  0.32101531  0.95602016  0.13633640     0.00100
C662        C  0.35476371  0.98254083  0.09603306    -0.11800
C663        C  0.38918131  0.52511406  0.10642654     0.02300
C664        C  0.38175481  0.55215862  0.14488259     0.00000
C665        C  0.35149362  0.52786438  0.19007189    -0.11700
C666        C  0.31940013  0.98167273  0.18440917     0.02200
H667        H  0.35135882  0.97540622  0.05092221     0.15200
H668        H  0.35069761  0.54433222  0.22938595     0.15200
C669        C  0.27972098  0.97018336  0.21639596     0.36800
C670        C  0.42865335  0.54001988  0.07131376     0.36700
N671        N  0.24877192  0.96678319  0.24015749    -0.43500
N672        N  0.45947298  0.54968136  0.04232071    -0.43500
C673        C  0.28830056  0.89613171  0.05624889     0.00100
C674        C  0.24999963  0.88531532  0.02404149    -0.11800
C675        C  0.24898876  0.87953877  0.46248823     0.02300
C676        C  0.28813774  0.89021707  0.43041998     0.00000
C677        C  0.32465291  0.89928525  0.46298719    -0.11700
C678        C  0.32527976  0.90045336  0.02229908     0.02200
H679        H  0.22104921  0.88120971  0.04665493     0.15200
H680        H  0.35456748  0.90637413  0.44058152     0.15200
C681        C  0.36968078  0.91810566  0.04309386     0.36800
C682        C  0.20717552  0.85850565  0.43427857     0.36700
N683        N  0.40654403  0.93804611  0.05574614    -0.43500
N684        N  0.17386327  0.84104633  0.41041519    -0.43500
C685        C  0.31725998  0.87759869  0.14296427     0.00100
C686        C  0.35842962  0.89895829  0.16992039    -0.11800
C687        C  0.38688258  0.88088368  0.16628357     0.02300
C688        C  0.37042283  0.83463957  0.15073128     0.00000
C689        C  0.32503005  0.81101339  0.13729955    -0.11700
C690        C  0.30050607  0.83198031  0.12777650     0.02200
H691        H  0.37197773  0.93345816  0.18361200     0.15200
H692        H  0.31066552  0.77723679  0.12326035     0.15200
C693        C  0.26157358  0.80809752  0.09291096     0.36800
C694        C  0.43182909  0.91642402  0.16266350     0.36700
N695        N  0.23247806  0.79251956  0.06103713    -0.43500
N696        N  0.46381910  0.95077069  0.15732006    -0.43500
C697        C  0.04688749  0.87349523  0.14075296     0.00100
C698        C  0.02709765  0.88392461  0.09614978    -0.11800
C699        C  0.48164431  0.87025367  0.09533077     0.02300
C700        C  0.45027459  0.84053426  0.13861686     0.00000
C701        C  0.47146453  0.83512554  0.18613814    -0.11700
C702        C  0.01644445  0.84675719  0.18543199     0.02200
H703        H  0.04901992  0.90646738  0.06272013     0.15200
H704        H  0.45238177  0.82005876  0.22508206     0.15200
C705        C  0.02526045  0.82313398  0.22761175     0.36800
C706        C  0.47680716  0.90159692  0.06094942     0.36700
N707        N  0.02580283  0.79934265  0.26131950    -0.43500
N708        N  0.48119080  0.93203260  0.03516675    -0.43500
C709        C  0.11084104  0.88294304  0.07220700     0.00100
C710        C  0.15139000  0.90923684  0.04183394    -0.11800
C711        C  0.15400133  0.90762801  0.48113682     0.02300
C712        C  0.11474741  0.88269392  0.44849492     0.00000
C713        C  0.08059081  0.84628546  0.48027246    -0.11700
C714        C  0.07974924  0.84591726  0.04051670     0.02200
H715        H  0.18172621  0.93119540  0.06310573     0.15200
H716        H  0.05412309  0.81715573  0.46103734     0.15200
C717        C  0.04655469  0.80800937  0.07081253     0.36800
C718        C  0.19662084  0.93600808  0.45500712     0.36700
N719        N  0.02191800  0.78266335  0.10359897    -0.43500
N720        N  0.23197945  0.95912799  0.43717839    -0.43500
C721        C  0.12160368  0.66939569  0.35940264     0.00100
C722        C  0.15976797  0.68719244  0.39376556    -0.11800
C723        C  0.18948692  0.67122372  0.39130499     0.02300
C724        C  0.17759767  0.62924864  0.36332215     0.00000
C725        C  0.13943780  0.61266964  0.32824270    -0.11700
C726        C  0.12243113  0.64155021  0.31481435     0.02200
H727        H  0.16676263  0.71434209  0.42271220     0.15200
H728        H  0.12900129  0.58275872  0.30300979     0.15200
C729        C  0.14797473  0.66943428  0.26755592     0.36800
C730        C  0.22938785  0.69697099  0.42372376     0.36700
N731        N  0.17460542  0.69542703  0.23662293    -0.43500
N732        N  0.26007316  0.71651986  0.45244516    -0.43500
C733        C  0.13141053  0.95037429  0.37971258     0.00100
C734        C  0.14483789  0.97813182  0.42776727    -0.11800
C735        C  0.17732698  0.52252870  0.42214394     0.02300
C736        C  0.17945636  0.54931119  0.37323368     0.00000
C737        C  0.15727626  0.52206939  0.32442708    -0.11700
C738        C  0.13579501  0.97373139  0.32758356     0.02200
H739        H  0.13497221  0.96504718  0.47087363     0.15200
H740        H  0.15717553  0.53764253  0.28423902     0.15200
C741        C  0.10854600  0.94609985  0.28319803     0.36800
C742        C  0.21293741  0.53331107  0.46104258     0.36700
N743        N  0.08171133  0.91659531  0.25747636    -0.43500
N744        N  0.24002279  0.53857506  0.49327843    -0.43500
C745        C  0.38772045  0.79718366  0.06665132     0.00100
C746        C  0.39100743  0.83126361  0.03243052    -0.11800
C747        C  0.39936334  0.83400443  0.47392602     0.02300
C748        C  0.39539665  0.79731035  0.44095420     0.00000
C749        C  0.38164855  0.75800773  0.47345434    -0.11700
C750        C  0.37924902  0.75788716  0.03539895     0.02200
H751        H  0.39305395  0.85998346  0.05301405     0.15200
H752        H  0.37421518  0.72799567  0.45089858     0.15200
C753        C  0.36467477  0.71627301  0.06395448     0.36800
C754        C  0.41425284  0.87770464  0.45218476     0.36700
N755        N  0.35243829  0.68218706  0.08599423    -0.43500
N756        N  0.42823442  0.91483971  0.44122058    -0.43500
C757        C  0.45687161  0.82857144  0.36844601     0.00100
C758        C  0.48375950  0.87557954  0.37288278    -0.11800
C759        C  0.03026933  0.89861731  0.38068128     0.02300
C760        C  0.05487080  0.87550234  0.37759434     0.00000
C761        C  0.02763884  0.82851830  0.37300740    -0.11700
C762        C  0.48104389  0.80612881  0.37687211     0.02200
H763        H  0.46880820  0.89580860  0.37386715     0.15200
H764        H  0.04268941  0.80773829  0.37273221     0.15200
C765        C  0.46034228  0.76229050  0.40194626     0.36800
C766        C  0.04875760  0.94519037  0.39617602     0.36700
N767        N  0.44271985  0.72766836  0.42395506    -0.43500
N768        N  0.06138751  0.98217922  0.40861043    -0.43500
C769        C  0.37548088  0.82505241  0.35424040     0.00100
C770        C  0.33152452  0.80384517  0.37567988    -0.11800
C771        C  0.30496050  0.82318945  0.37428757     0.02300
C772        C  0.32064324  0.86572004  0.34858105     0.00000
C773        C  0.35910788  0.88111049  0.31375662    -0.11700
C774        C  0.38682222  0.86188335  0.31759746     0.02200
H775        H  0.31928217  0.77268300  0.39793562     0.15200
H776        H  0.36914908  0.90991597  0.28649286     0.15200
C777        C  0.42711806  0.88157346  0.28576677     0.36800
C778        C  0.26405867  0.80094227  0.40667815     0.36700
N779        N  0.46166007  0.89826262  0.26424341    -0.43500
N780        N  0.23211230  0.78531001  0.43463254    -0.43500
C781        C  0.12494869  0.94650190  0.14411228     0.00100
C782        C  0.17141459  0.97099961  0.14506568    -0.11800
C783        C  0.19655442  0.51810480  0.14432114     0.02300
C784        C  0.17709047  0.54607794  0.14818133     0.00000
C785        C  0.13082626  0.52051567  0.15475337    -0.11700
C786        C  0.10569698  0.97381140  0.15345426     0.02200
H787        H  0.18935270  0.95310381  0.14696729     0.15200
H788        H  0.11052868  0.53479153  0.15351396     0.15400
C789        C  0.06214999  0.95819661  0.17510296     0.36800
C790        C  0.24242941  0.53360474  0.14320191     0.36700
N791        N  0.03012935  0.94916106  0.20000012    -0.43500
N792        N  0.27892912  0.54327964  0.14741003    -0.43500
C793        C  0.20751235  0.59996861  0.06669185     0.00100
C794        C  0.24877222  0.62083741  0.03678901    -0.11800
C795        C  0.25174788  0.62696617  0.47558025     0.02300
C796        C  0.21253960  0.61233591  0.44318846     0.00000
C797        C  0.17274141  0.59585149  0.47448112    -0.11700
C798        C  0.16907155  0.58497501  0.03169089     0.02200
H799        H  0.27809002  0.63008817  0.06079676     0.15200
H800        H  0.14202169  0.58391133  0.45095758     0.15200
C801        C  0.12373827  0.55377067  0.04732836     0.36800
C802        C  0.29339527  0.64158532  0.44683961     0.36700
N803        N  0.08655161  0.52690585  0.05174160    -0.43500
N804        N  0.32633957  0.65226664  0.42254760    -0.43500
C805        C  0.17751200  0.62688691  0.14233268     0.00100
C806        C  0.13583374  0.61030556  0.16845485    -0.11800
C807        C  0.10635419  0.62330134  0.14807733     0.02300
C808        C  0.12298392  0.66865274  0.13213479     0.00000
C809        C  0.16772752  0.69028647  0.11397268    -0.11700
C810        C  0.19410896  0.67001832  0.11654846     0.02200
H811        H  0.12505806  0.58666740  0.20340741     0.15200
H812        H  0.18119747  0.72247154  0.09493885     0.15200
C813        C  0.23768494  0.69411004  0.09116421     0.36800
C814        C  0.06571458  0.58674381  0.12540104     0.36700
N815        N  0.27227411  0.71192857  0.06925247    -0.43500
N816        N  0.03293723  0.55673422  0.10900002    -0.43500
O817        O  0.22806061  0.82968214  0.82029439    -0.85100
O818        O  0.15057447  0.74708141  0.79759367    -0.82200
C819        C  0.11736408  0.73870006  0.82959951     0.98300
O820        O  0.10266544  0.76562199  0.82718402    -0.82200
O821        O  0.10196690  0.84565828  0.80643548    -0.84800
C822        C  0.12803280  0.87821823  0.83835607     1.02900
O823        O  0.16970027  0.89516850  0.82904328    -0.77600
O824        O  0.24902210  0.89559432  0.78736557    -0.77800
C825        C  0.25480212  0.87165349  0.82284684     1.02800
O826        O  0.24315341  0.84641013  0.69693382    -0.85100
O827        O  0.16387768  0.76422189  0.67284829    -0.82200
C828        C  0.12197453  0.73966594  0.66779881     0.98400
O829        O  0.09831070  0.74821744  0.70181736    -0.82200
O830        O  0.10226382  0.82983316  0.68094796    -0.84800
C831        C  0.11675000  0.87159757  0.67880064     1.02800
O832        O  0.14662247  0.89648141  0.71352691    -0.77600
O833        O  0.22030479  0.89120090  0.66935041    -0.77800
C834        C  0.24825130  0.87819988  0.66386799     1.02800
Cr835      Cr  0.19391019  0.79949071  0.74720434     1.93700
Cr836      Cr  0.10604426  0.79977194  0.75387395     1.93200
Cr837      Cr  0.19389586  0.88894693  0.75000665     1.39100
O838        O  0.16441237  0.82912820  0.75092061    -1.22900
C839        C  0.20253965  0.59912257  0.63414672    -0.02300
C840        C  0.40382476  0.80242194  0.87295802    -0.02300
C841        C  0.20453212  0.60408846  0.87664755    -0.02300
C842        C  0.10755998  0.89693105  0.88584727    -0.02300
C843        C  0.09943873  0.89316860  0.63521936    -0.02300
C844        C  0.39675646  0.80926135  0.63327787    -0.02300
C845        C  0.29211512  0.90284797  0.62492656    -0.02300
C846        C  0.09216302  0.69277327  0.86459494    -0.02300
C847        C  0.39464265  0.59997373  0.86668411    -0.02300
C848        C  0.29702278  0.89358208  0.86301311    -0.02300
C849        C  0.39999423  0.60316957  0.62960051    -0.02300
C850        C  0.09776523  0.69608629  0.62667742    -0.02300
O851        O  0.27036274  0.66817430  0.82937624    -0.85100
O852        O  0.34691146  0.74810432  0.80795230    -0.82200
C853        C  0.38313892  0.75881779  0.83237223     0.98300
O854        O  0.40336199  0.73821823  0.81661811    -0.82200
O855        O  0.39977228  0.65375141  0.79048218    -0.84800
C856        C  0.37466371  0.62284758  0.82569841     1.02900
O857        O  0.33401125  0.61093261  0.82428081    -0.77600
O858        O  0.25094690  0.60185825  0.79775857    -0.77800
C859        C  0.24536117  0.62604092  0.83389902     1.02800
O860        O  0.25152663  0.65771294  0.70540943    -0.85100
O861        O  0.33471121  0.74177246  0.68590966    -0.82200
C862        C  0.37618743  0.76461784  0.67298561     0.98400
O863        O  0.40125087  0.75151161  0.69348453    -0.82200
O864        O  0.39442038  0.66807428  0.67002842    -0.84800
C865        C  0.37817206  0.62600697  0.66729493     1.02800
O866        O  0.34706942  0.60316445  0.70207850    -0.77600
O867        O  0.27393822  0.61280496  0.67639824    -0.77800
C868        C  0.24574830  0.62522682  0.67287404     1.02800
Cr869      Cr  0.30384391  0.70110672  0.75591279     1.93700
Cr870      Cr  0.39373337  0.70030905  0.74365363     1.93200
Cr871      Cr  0.30431007  0.61288509  0.75004728     1.39100
O872        O  0.33422934  0.67211349  0.74963240    -1.22900
C873        C  0.04650784  0.67343566  0.64336035     0.00100
C874        C  0.02436877  0.69465039  0.62055902    -0.11800
C875        C  0.47815595  0.67589636  0.62308223     0.02300
C876        C  0.45081385  0.63177903  0.64445479     0.00000
C877        C  0.47266446  0.61380220  0.67473053    -0.11700
C878        C  0.01918484  0.63506376  0.67776800     0.02200
H879        H  0.04371539  0.72569631  0.59756923     0.15200
H880        H  0.45332931  0.58176504  0.69445374     0.15200
C881        C  0.03531295  0.61477534  0.71643742     0.36800
C882        C  0.45981566  0.69762928  0.58988109     0.36700
N883        N  0.04546158  0.59342085  0.74327608    -0.43500
N884        N  0.44565986  0.71408234  0.56039872    -0.43500
C885        C  0.39396742  0.60390101  0.56049788     0.00100
C886        C  0.43193529  0.61901633  0.52521435    -0.11800
C887        C  0.43405635  0.63060901  0.96822671     0.02300
C888        C  0.39512636  0.61197372  0.93362664     0.00000
C889        C  0.35515085  0.58955547  0.96641042    -0.11700
C890        C  0.35411303  0.58275230  0.52733496     0.02200
H891        H  0.46310516  0.62552890  0.54258017     0.15200
H892        H  0.32440002  0.57148315  0.94329876     0.15200
C893        C  0.31714575  0.54044549  0.54442230     0.36800
C894        C  0.47563536  0.67095589  0.95767178     0.36700
N895        N  0.28798366  0.50429572  0.55163099    -0.43500
N896        N  0.50877637  0.70465146  0.95522976    -0.43500
C897        C  0.36701992  0.54594897  0.86447838     0.00100
C898        C  0.38619625  0.52221495  0.88805802    -0.11800
C899        C  0.37061161  0.97653593  0.87460704     0.02300
C900        C  0.32607305  0.94717753  0.85504397     0.00000
C901        C  0.30223785  0.96976579  0.85038709    -0.11700
C902        C  0.32128799  0.51665428  0.85027601     0.02200
H903        H  0.41770076  0.54095364  0.90973145     0.15200
H904        H  0.26661743  0.95043480  0.85014661     0.15200
C905        C  0.28789415  0.52886120  0.84662324     0.36800
C906        C  0.40628185  0.96761171  0.86742184     0.36700
N907        N  0.25780686  0.53405821  0.84374370    -0.43500
N908        N  0.43825902  0.96678748  0.85591431    -0.43500
C909        C  0.08829655  0.69663090  0.93275196     0.00100
C910        C  0.10814373  0.73802593  0.96331688    -0.11800
C911        C  0.11390492  0.74081675  0.52472759     0.02300
C912        C  0.09725172  0.70149782  0.55858297     0.00000
C913        C  0.07313255  0.66114983  0.52820426    -0.11700
C914        C  0.07096779  0.65771746  0.96850091     0.02200
H915        H  0.11979450  0.76816009  0.93922073     0.15200
H916        H  0.05565056  0.63056612  0.55199655     0.15200
C917        C  0.05578526  0.61269650  0.94830129     0.36800
C918        C  0.13436665  0.78381572  0.55220424     0.36700
N919        N  0.04443547  0.57582458  0.93673815    -0.43500
N920        N  0.15002419  0.81770891  0.57622095    -0.43500
C921        C  0.04237330  0.66566146  0.84156698     0.00100
C922        C  0.01549516  0.61847407  0.84206884    -0.11800
C923        C  0.46876170  0.59658639  0.83393905     0.02300
C924        C  0.44543139  0.61987070  0.84627886     0.00000
C925        C  0.47280238  0.66655411  0.84225533    -0.11700
C926        C  0.01800671  0.68747426  0.83012486     0.02200
H927        H  0.03110008  0.59849547  0.84264152     0.15200
H928        H  0.45935099  0.68832666  0.84775500     0.15200
C929        C  0.02371151  0.71014102  0.77710378     0.36800
C930        C  0.44960693  0.55675404  0.79878697     0.36700
N931        N  0.01985003  0.72383600  0.73383134    -0.43500
N932        N  0.43512399  0.52584164  0.76852717    -0.43500
C933        C  0.32101531  0.95602002  0.63633683     0.00100
C934        C  0.35476384  0.98254069  0.59603371    -0.11800
C935        C  0.38918149  0.52511399  0.60642632     0.02300
C936        C  0.38175502  0.55215845  0.64488262     0.00000
C937        C  0.35149393  0.52786418  0.69007206    -0.11700
C938        C  0.31939981  0.98167262  0.68440936     0.02200
H939        H  0.35135902  0.97540620  0.55092278     0.15200
H940        H  0.35069800  0.54433186  0.72938606     0.15200
C941        C  0.27972055  0.97018318  0.71639601     0.36800
C942        C  0.42865338  0.54001999  0.57131314     0.36700
N943        N  0.24877140  0.96678295  0.74015736    -0.43500
N944        N  0.45947296  0.54968175  0.54231979    -0.43500
C945        C  0.28830072  0.89613174  0.55624912     0.00100
C946        C  0.24999987  0.88531547  0.52404174    -0.11800
C947        C  0.24898850  0.87953833  0.96248799     0.02300
C948        C  0.28813749  0.89021662  0.93041976     0.00000
C949        C  0.32465259  0.89928478  0.96298703    -0.11700
C950        C  0.32527996  0.90045348  0.52229929     0.02200
H951        H  0.22104925  0.88120955  0.54665535     0.15200
H952        H  0.35456727  0.90637357  0.94058129     0.15200
C953        C  0.36968090  0.91810564  0.54309406     0.36800
C954        C  0.20717524  0.85850512  0.93427830     0.36700
N955        N  0.40654420  0.93804616  0.55574633    -0.43500
N956        N  0.17386314  0.84104578  0.91041461    -0.43500
C957        C  0.31726020  0.87759866  0.64296435     0.00100
C958        C  0.35842997  0.89895824  0.66992024    -0.11800
C959        C  0.38688288  0.88088358  0.66628330     0.02300
C960        C  0.37042306  0.83463943  0.65073112     0.00000
C961        C  0.32503029  0.81101340  0.63729947    -0.11700
C962        C  0.30050630  0.83198028  0.62777650     0.02200
H963        H  0.37197817  0.93345818  0.68361183     0.15200
H964        H  0.31066567  0.77723661  0.62326022     0.15200
C965        C  0.26157375  0.80809746  0.59291098     0.36800
C966        C  0.43182946  0.91642378  0.66266299     0.36700
N967        N  0.23247816  0.79251938  0.56103734    -0.43500
N968        N  0.46381969  0.95077024  0.65731942    -0.43500
C969        C  0.04688766  0.87349475  0.64075236     0.00100
C970        C  0.02709781  0.88392409  0.59614913    -0.11800
C971        C  0.48164440  0.87025313  0.59533016     0.02300
C972        C  0.45027474  0.84053394  0.63861646     0.00000
C973        C  0.47146479  0.83512532  0.68613761    -0.11700
C974        C  0.01644464  0.84675684  0.68543150     0.02200
H975        H  0.04902007  0.90646679  0.56271941     0.15200
H976        H  0.45238196  0.82005851  0.72508175     0.15200
C977        C  0.02526055  0.82313375  0.72761155     0.36800
C978        C  0.47680702  0.90159615  0.56094875     0.36700
N979        N  0.02580263  0.79934245  0.76131961    -0.43500
N980        N  0.48119033  0.93203172  0.53516614    -0.43500
C981        C  0.11084139  0.88294285  0.57220667     0.00100
C982        C  0.15139029  0.90923696  0.54183373    -0.11800
C983        C  0.15400098  0.90762754  0.98113699     0.02300
C984        C  0.11474695  0.88269365  0.94849520     0.00000
C985        C  0.08059022  0.84628556  0.98027302    -0.11700
C986        C  0.07974974  0.84591711  0.54051616     0.02200
H987        H  0.18172652  0.93119561  0.56310578     0.15200
H988        H  0.05412215  0.81715579  0.96103788     0.15200
C989        C  0.04655512  0.80800915  0.57081177     0.36800
C990        C  0.19662047  0.93600733  0.95500716     0.36700
N991        N  0.02191834  0.78266309  0.60359805    -0.43500
N992        N  0.23197911  0.95912709  0.93717829    -0.43500
C993        C  0.12160338  0.66939543  0.85940325     0.00100
C994        C  0.15976761  0.68719215  0.89376627    -0.11800
C995        C  0.18948672  0.67122361  0.89130516     0.02300
C996        C  0.17759762  0.62924863  0.86332216     0.00000
C997        C  0.13943751  0.61266936  0.82824321    -0.11700
C998        C  0.12243064  0.64154978  0.81481506     0.02200
H999        H  0.16676212  0.71434147  0.92271307     0.15200
H1000       H  0.12900093  0.58275837  0.80301035     0.15200
C1001       C  0.14797382  0.66943371  0.76755640     0.36800
C1002       C  0.22938777  0.69697104  0.92372354     0.36700
N1003       N  0.17460423  0.69542649  0.73662317    -0.43500
N1004       N  0.26007323  0.71652004  0.95244462    -0.43500
C1005       C  0.13141033  0.95037400  0.87971257     0.00100
C1006       C  0.14483802  0.97813161  0.92776722    -0.11800
C1007       C  0.17732710  0.52252874  0.92214374     0.02300
C1008       C  0.17945637  0.54931122  0.87323356     0.00000
C1009       C  0.15727622  0.52206938  0.82442698    -0.11700
C1010       C  0.13579483  0.97373112  0.82758355     0.02200
H1011       H  0.13497245  0.96504708  0.97087358     0.15200
H1012       H  0.15717540  0.53764248  0.78423896     0.15200
C1013       C  0.10854587  0.94609962  0.78319794     0.36800
C1014       C  0.21293749  0.53331127  0.96104243     0.36700
N1015       N  0.08171138  0.91659505  0.75747615    -0.43500
N1016       N  0.24002295  0.53857551  0.99327830    -0.43500
C1017       C  0.38772041  0.79718328  0.56665108     0.00100
C1018       C  0.39100711  0.83126315  0.53243035    -0.11800
C1019       C  0.39936377  0.83400486  0.97392623     0.02300
C1020       C  0.39539696  0.79731067  0.94095449     0.00000
C1021       C  0.38164864  0.75800797  0.97345468    -0.11700
C1022       C  0.37924904  0.75788681  0.53539858     0.02200
H1023       H  0.39305359  0.85998295  0.55301382     0.15200
H1024       H  0.37421527  0.72799602  0.95089917     0.15200
C1025       C  0.36467505  0.71627264  0.56395397     0.36800
C1026       C  0.41425329  0.87770509  0.95218495     0.36700
N1027       N  0.35243888  0.68218674  0.58599363    -0.43500
N1028       N  0.42823485  0.91484017  0.94122084    -0.43500
C1029       C  0.45687183  0.82857165  0.86844621     0.00100
C1030       C  0.48375972  0.87557978  0.87288288    -0.11800
C1031       C  0.03026908  0.89861702  0.88068122     0.02300
C1032       C  0.05487050  0.87550201  0.87759433     0.00000
C1033       C  0.02763853  0.82851795  0.87300739    -0.11700
C1034       C  0.48104412  0.80612904  0.87687228     0.02200
H1035       H  0.46880843  0.89580877  0.87386716     0.15200
H1036       H  0.04268912  0.80773796  0.87273246     0.15200
C1037       C  0.46034254  0.76229073  0.90194640     0.36800
C1038       C  0.04875746  0.94519015  0.89617584     0.36700
N1039       N  0.44272014  0.72766859  0.92395505    -0.43500
N1040       N  0.06138758  0.98217903  0.90861024    -0.43500
C1041       C  0.37548111  0.82505253  0.85424064     0.00100
C1042       C  0.33152478  0.80384528  0.87568008    -0.11800
C1043       C  0.30496056  0.82318927  0.87428744     0.02300
C1044       C  0.32064320  0.86571980  0.84858080     0.00000
C1045       C  0.35910774  0.88111014  0.81375635    -0.11700
C1046       C  0.38682230  0.86188329  0.81759738     0.02200
H1047       H  0.31928248  0.77268301  0.89793603     0.15200
H1048       H  0.36914878  0.90991567  0.78649227     0.15200
C1049       C  0.42711806  0.88157324  0.78576654     0.36800
C1050       C  0.26405851  0.80094198  0.90667748     0.36700
N1051       N  0.46165996  0.89826206  0.76424291    -0.43500
N1052       N  0.23211181  0.78530976  0.93463116    -0.43500
C1053       C  0.12494877  0.94650158  0.64411204     0.00100
C1054       C  0.17141466  0.97099936  0.64506584    -0.11800
C1055       C  0.19655474  0.51810453  0.64432110     0.02300
C1056       C  0.17709077  0.54607769  0.64818145     0.00000
C1057       C  0.13082664  0.52051531  0.65475359    -0.11700
C1058       C  0.10569693  0.97381098  0.65345377     0.02200
H1059       H  0.18935281  0.95310363  0.64696761     0.15200
H1060       H  0.11052893  0.53479153  0.65351444     0.15400
C1061       C  0.06214994  0.95819589  0.67510238     0.36800
C1062       C  0.24242974  0.53360449  0.64320198     0.36700
N1063       N  0.03012896  0.94915927  0.69999945    -0.43500
N1064       N  0.27892955  0.54327968  0.64740995    -0.43500
C1065       C  0.20751258  0.59996843  0.56669194     0.00100
C1066       C  0.24877248  0.62083716  0.53678903    -0.11800
C1067       C  0.25174776  0.62696640  0.97558026     0.02300
C1068       C  0.21253950  0.61233594  0.94318838     0.00000
C1069       C  0.17274129  0.59585148  0.97448096    -0.11700
C1070       C  0.16907175  0.58497495  0.53169108     0.02200
H1071       H  0.27809024  0.63008782  0.56079649     0.15200
H1072       H  0.14202152  0.58391124  0.95095731     0.15200
C1073       C  0.12373847  0.55377045  0.54732859     0.36800
C1074       C  0.29339524  0.64158563  0.94683969     0.36700
N1075       N  0.08655190  0.52690541  0.55174183    -0.43500
N1076       N  0.32633953  0.65226681  0.92254783    -0.43500
C1077       C  0.17751228  0.62688665  0.64233291     0.00100
C1078       C  0.13583396  0.61030520  0.66845502    -0.11800
C1079       C  0.10635443  0.62330099  0.64807724     0.02300
C1080       C  0.12298412  0.66865238  0.63213467     0.00000
C1081       C  0.16772782  0.69028625  0.61397288    -0.11700
C1082       C  0.19410927  0.67001808  0.61654875     0.02200
H1083       H  0.12505826  0.58666709  0.70340745     0.15200
H1084       H  0.18119780  0.72247129  0.59493935     0.15200
C1085       C  0.23768531  0.69410978  0.59116457     0.36800
C1086       C  0.06571489  0.58674349  0.62540086     0.36700
N1087       N  0.27227459  0.71192808  0.56925311    -0.43500
N1088       N  0.03293753  0.55673395  0.60899977    -0.43500
O1089       O  0.72806061  0.32968242  0.32029436    -0.85100
O1090       O  0.65057459  0.24708174  0.29759308    -0.82200
C1091       C  0.61736440  0.23870050  0.32959932     0.98300
O1092       O  0.60266589  0.26562255  0.32718415    -0.82200
O1093       O  0.60196725  0.34565889  0.30643540    -0.84800
C1094       C  0.62803327  0.37821872  0.33835602     1.02900
O1095       O  0.66970071  0.39516883  0.32904320    -0.77600
O1096       O  0.74902228  0.39559459  0.28736534    -0.77800
C1097       C  0.75480217  0.37165378  0.32284685     1.02800
O1098       O  0.74315350  0.34641072  0.19693385    -0.85100
O1099       O  0.66387783  0.26422275  0.17284784    -0.82200
C1100       C  0.62197468  0.23966670  0.16779864     0.98400
O1101       O  0.59831091  0.24821801  0.20181753    -0.82200
O1102       O  0.60226385  0.32983364  0.18094812    -0.84800
C1103       C  0.61674996  0.37159802  0.17880090     1.02800
O1104       O  0.64662255  0.39648189  0.21352705    -0.77600
O1105       O  0.72030479  0.39120132  0.16935013    -0.77800
C1106       C  0.74825127  0.37820027  0.16386776     1.02800
Cr1107     Cr  0.69391029  0.29949121  0.24720408     1.93700
Cr1108     Cr  0.60604444  0.29977246  0.25387405     1.93200
Cr1109     Cr  0.69389604  0.38894737  0.25000648     1.39100
O1110       O  0.66441250  0.32912870  0.25092044    -1.22900
C1111       C  0.70253948  0.09912292  0.13414666    -0.02300
C1112       C  0.90382464  0.30242182  0.37295792    -0.02300
C1113       C  0.70453218  0.10408857  0.37664768    -0.02300
C1114       C  0.60756053  0.39693151  0.38584733    -0.02300
C1115       C  0.59943856  0.39316908  0.13521981    -0.02300
C1116       C  0.89675620  0.30926145  0.13327790    -0.02300
C1117       C  0.79211499  0.40284819  0.12492624    -0.02300
C1118       C  0.59216340  0.19277363  0.36459468    -0.02300
C1119       C  0.89464258  0.09997400  0.36668419    -0.02300
C1120       C  0.79702290  0.39358242  0.36301321    -0.02300
C1121       C  0.89999415  0.10316964  0.12960051    -0.02300
C1122       C  0.59776529  0.19608710  0.12667730    -0.02300
O1123       O  0.77036261  0.16817433  0.32937638    -0.85100
O1124       O  0.84691117  0.24810424  0.30795257    -0.82200
C1125       C  0.88313878  0.25881777  0.33237207     0.98300
O1126       O  0.90336195  0.23821842  0.31661754    -0.82200
O1127       O  0.89977211  0.15375157  0.29048202    -0.84800
C1128       C  0.87466358  0.12284780  0.32569834     1.02900
O1129       O  0.83401108  0.11093279  0.32428061    -0.77600
O1130       O  0.75094675  0.10185836  0.29775836    -0.77800
C1131       C  0.74536111  0.12604097  0.33389906     1.02800
O1132       O  0.75152630  0.15771314  0.20540960    -0.85100
O1133       O  0.83471089  0.24177293  0.18591012    -0.82200
C1134       C  0.87618705  0.26461793  0.17298560     0.98400
O1135       O  0.90125040  0.25151141  0.19348409    -0.82200
O1136       O  0.89441998  0.16807423  0.17002809    -0.84800
C1137       C  0.87817185  0.12600696  0.16729481     1.02800
O1138       O  0.84706933  0.10316452  0.20207856    -0.77600
O1139       O  0.77393821  0.11280547  0.17639799    -0.77800
C1140       C  0.74574810  0.12522714  0.17287405     1.02800
Cr1141     Cr  0.80384363  0.20110687  0.25591298     1.93700
Cr1142     Cr  0.89373310  0.20030908  0.24365328     1.93200
Cr1143     Cr  0.80430994  0.11288530  0.25004708     1.39100
O1144       O  0.83422911  0.17211366  0.24963227    -1.22900
C1145       C  0.54650793  0.17343645  0.14336032     0.00100
C1146       C  0.52436869  0.19465104  0.12055908    -0.11800
C1147       C  0.97815586  0.17589648  0.12308221     0.02300
C1148       C  0.95081373  0.13177916  0.14445484     0.00000
C1149       C  0.97266435  0.11380227  0.17473034    -0.11700
C1150       C  0.51918503  0.13506448  0.17776781     0.02200
H1151       H  0.54371525  0.22569709  0.09756945     0.15200
H1152       H  0.95332916  0.08176498  0.19445346     0.15200
C1153       C  0.53531346  0.11477667  0.21643769     0.36800
C1154       C  0.95981554  0.19762943  0.08988119     0.36700
N1155       N  0.54546275  0.09342285  0.24327647    -0.43500
N1156       N  0.94565975  0.21408255  0.06039887    -0.43500
C1157       C  0.89396755  0.10390125  0.06049795     0.00100
C1158       C  0.93193542  0.11901640  0.02521452    -0.11800
C1159       C  0.93405648  0.13060934  0.46822700     0.02300
C1160       C  0.89512643  0.11197394  0.43362687     0.00000
C1161       C  0.85515098  0.08955549  0.46641071    -0.11700
C1162       C  0.85411318  0.08275285  0.02733508     0.02200
H1163       H  0.96310527  0.12552877  0.04258046     0.15200
H1164       H  0.82440015  0.07148304  0.44329908     0.15200
C1165       C  0.81714553  0.04044646  0.04442282     0.36800
C1166       C  0.97563555  0.17095621  0.45767196     0.36700
N1167       N  0.78798320  0.00429686  0.05163165    -0.43500
N1168       N  0.00877653  0.20465174  0.45522959    -0.43500
C1169       C  0.86701996  0.04594924  0.36447835     0.00100
C1170       C  0.88619624  0.02221520  0.38805807    -0.11800
C1171       C  0.87061174  0.47653622  0.37460700     0.02300
C1172       C  0.82607319  0.44717780  0.35504382     0.00000
C1173       C  0.80223799  0.46976605  0.35038687    -0.11700
C1174       C  0.82128812  0.01665454  0.35027575     0.02200
H1175       H  0.91770072  0.04095397  0.40973163     0.15200
H1176       H  0.76661753  0.45043504  0.35014649     0.15200
C1177       C  0.78789430  0.02886144  0.34662300     0.36800
C1178       C  0.90628204  0.46761199  0.36742193     0.36700
N1179       N  0.75780699  0.03405844  0.34374345    -0.43500
N1180       N  0.93825920  0.46678768  0.35591454    -0.43500
C1181       C  0.58829700  0.19663106  0.43275179     0.00100
C1182       C  0.60814417  0.23802600  0.46331683    -0.11800
C1183       C  0.61390500  0.24081740  0.02472742     0.02300
C1184       C  0.59725167  0.20149853  0.05858293     0.00000
C1185       C  0.57313234  0.16115049  0.02820442    -0.11700
C1186       C  0.57096828  0.15771756  0.46850067     0.02200
H1187       H  0.61979514  0.26816028  0.43922066     0.15200
H1188       H  0.55565019  0.13056684  0.05199682     0.15200
C1189       C  0.55578604  0.11269668  0.44830092     0.36800
C1190       C  0.63436681  0.28381641  0.05220390     0.36700
N1191       N  0.54443665  0.07582494  0.43673750    -0.43500
N1192       N  0.65002441  0.31770974  0.07622034    -0.43500
C1193       C  0.54237360  0.16566178  0.34156685     0.00100
C1194       C  0.51549535  0.11847435  0.34206904    -0.11800
C1195       C  0.96876159  0.09658671  0.33393906     0.02300
C1196       C  0.94543128  0.11987099  0.34627893     0.00000
C1197       C  0.97280227  0.16655438  0.34225541    -0.11700
C1198       C  0.51800702  0.18747460  0.33012484     0.02200
H1199       H  0.53110019  0.09849572  0.34264169     0.15200
H1200       H  0.95935081  0.18832689  0.34775477     0.15200
C1201       C  0.52371188  0.21014156  0.27710391     0.36800
C1202       C  0.94960682  0.05675437  0.29878691     0.36700
N1203       N  0.51985038  0.22383658  0.23383149    -0.43500
N1204       N  0.93512374  0.02584196  0.26852719    -0.43500
C1205       C  0.82101524  0.45602023  0.13633649     0.00100
C1206       C  0.85476380  0.48254091  0.09603341    -0.11800
C1207       C  0.88918093  0.02511388  0.10642577     0.02300
C1208       C  0.88175495  0.05215848  0.14488247     0.00000
C1209       C  0.85149398  0.02786429  0.19007203    -0.11700
C1210       C  0.81939972  0.48167285  0.18440897     0.02200
H1211       H  0.85135903  0.47540642  0.05092248     0.15200
H1212       H  0.85069822  0.04433204  0.22938603     0.15200
C1213       C  0.77972053  0.47018334  0.21639581     0.36800
C1214       C  0.92865269  0.04001949  0.07131246     0.36700
N1215       N  0.74877146  0.46678294  0.24015751    -0.43500
N1216       N  0.95947210  0.04968074  0.04231902    -0.43500
C1217       C  0.78830064  0.39613197  0.05624877     0.00100
C1218       C  0.74999978  0.38531568  0.02404132    -0.11800
C1219       C  0.74898881  0.37953900  0.46248813     0.02300
C1220       C  0.78813779  0.39021725  0.43041992     0.00000
C1221       C  0.82465293  0.39928532  0.46298718    -0.11700
C1222       C  0.82527988  0.40045366  0.02229902     0.02200
H1223       H  0.72104930  0.38120992  0.04665474     0.15200
H1224       H  0.85456751  0.40637409  0.44058159     0.15200
C1225       C  0.86968079  0.41810577  0.04309390     0.36800
C1226       C  0.70717562  0.35850591  0.43427843     0.36700
N1227       N  0.90654403  0.43804611  0.05574648    -0.43500
N1228       N  0.67386341  0.34104642  0.41041492    -0.43500
C1229       C  0.81725995  0.37759875  0.14296407     0.00100
C1230       C  0.85842965  0.39895833  0.16992007    -0.11800
C1231       C  0.88688253  0.38088363  0.16628332     0.02300
C1232       C  0.87042277  0.33463954  0.15073089     0.00000
C1233       C  0.82503000  0.31101342  0.13729888    -0.11700
C1234       C  0.80050599  0.33198039  0.12777626     0.02200
H1235       H  0.87197780  0.43345823  0.18361161     0.15200
H1236       H  0.81066559  0.27723699  0.12325960     0.15200
C1237       C  0.76157349  0.30809768  0.09291066     0.36800
C1238       C  0.93182916  0.41642391  0.16266366     0.36700
N1239       N  0.73247818  0.29251989  0.06103663    -0.43500
N1240       N  0.96381936  0.45077042  0.15732083    -0.43500
C1241       C  0.54688754  0.37349540  0.14075300     0.00100
C1242       C  0.52709779  0.38392490  0.09614982    -0.11800
C1243       C  0.98164430  0.37025375  0.09533099     0.02300
C1244       C  0.95027447  0.34053397  0.13861676     0.00000
C1245       C  0.97146437  0.33512493  0.18613783    -0.11700
C1246       C  0.51644441  0.34675712  0.18543179     0.02200
H1247       H  0.54902013  0.40646778  0.06272032     0.15200
H1248       H  0.95238156  0.32005795  0.22508178     0.15200
C1249       C  0.52526049  0.32313407  0.22761175     0.36800
C1250       C  0.97680707  0.40159681  0.06094946     0.36700
N1251       N  0.52580298  0.29934300  0.26131979    -0.43500
N1252       N  0.98119078  0.43203251  0.03516675    -0.43500
C1253       C  0.61084099  0.38294331  0.07220697     0.00100
C1254       C  0.65138993  0.40923721  0.04183391    -0.11800
C1255       C  0.65400144  0.40762818  0.48113700     0.02300
C1256       C  0.61474758  0.38269404  0.44849508     0.00000
C1257       C  0.58059096  0.34628569  0.48027270    -0.11700
C1258       C  0.57974920  0.34591751  0.04051664     0.02200
H1259       H  0.68172612  0.43119598  0.06310571     0.15200
H1260       H  0.55412322  0.31715576  0.46103749     0.15200
C1261       C  0.54655453  0.30800960  0.07081242     0.36800
C1262       C  0.69662095  0.43600826  0.45500721     0.36700
N1263       N  0.52191760  0.28266359  0.10359861    -0.43500
N1264       N  0.73197952  0.45912810  0.43717838    -0.43500
C1265       C  0.62160395  0.16939600  0.35940278     0.00100
C1266       C  0.65976820  0.18719278  0.39376573    -0.11800
C1267       C  0.68948706  0.17122393  0.39130535     0.02300
C1268       C  0.67759784  0.12924889  0.36332238     0.00000
C1269       C  0.63943804  0.11266992  0.32824287    -0.11700
C1270       C  0.62243131  0.14155043  0.31481461     0.02200
H1271       H  0.66676281  0.21434235  0.42271221     0.15200
H1272       H  0.62900154  0.08275904  0.30300982     0.15200
C1273       C  0.64797456  0.16943433  0.26755596     0.36800
C1274       C  0.72938797  0.19697123  0.42372415     0.36700
N1275       N  0.67460493  0.19542706  0.23662259    -0.43500
N1276       N  0.76007330  0.21652018  0.45244550    -0.43500
C1277       C  0.63141083  0.45037445  0.37971275     0.00100
C1278       C  0.64483809  0.47813201  0.42776745    -0.11800
C1279       C  0.67732692  0.02252882  0.42214376     0.02300
C1280       C  0.67945628  0.04931134  0.37323362     0.00000
C1281       C  0.65727616  0.02206962  0.32442695    -0.11700
C1282       C  0.63579520  0.47373153  0.32758377     0.02200
H1283       H  0.63497234  0.46504737  0.47087375     0.15200
H1284       H  0.65717547  0.03764272  0.28423899     0.15200
C1285       C  0.60854608  0.44609996  0.28319831     0.36800
C1286       C  0.71293750  0.03331124  0.46104215     0.36700
N1287       N  0.58171144  0.41659554  0.25747641    -0.43500
N1288       N  0.74002310  0.03857542  0.49327770    -0.43500
C1289       C  0.88772046  0.29718351  0.06665108     0.00100
C1290       C  0.89100765  0.33126360  0.03243035    -0.11800
C1291       C  0.89936405  0.33400472  0.47392622     0.02300
C1292       C  0.89539700  0.29731050  0.44095436     0.00000
C1293       C  0.88164860  0.25800780  0.47345442    -0.11700
C1294       C  0.87924903  0.25788703  0.03539863     0.02200
H1295       H  0.89305410  0.35998332  0.05301374     0.15200
H1296       H  0.87421508  0.22799566  0.45089863     0.15200
C1297       C  0.86467495  0.21627286  0.06395401     0.36800
C1298       C  0.91425358  0.37770499  0.45218504     0.36700
N1299       N  0.85243878  0.18218689  0.08599347    -0.43500
N1300       N  0.92823496  0.41484006  0.44122097    -0.43500
C1301       C  0.95687170  0.32857147  0.36844596     0.00100
C1302       C  0.98375961  0.37557959  0.37288238    -0.11800
C1303       C  0.53026957  0.39861749  0.38068123     0.02300
C1304       C  0.55487103  0.37550252  0.37759461     0.00000
C1305       C  0.52763906  0.32851849  0.37300775    -0.11700
C1306       C  0.98104394  0.30612880  0.37687226     0.02200
H1307       H  0.96880834  0.39580866  0.37386659     0.15200
H1308       H  0.54268961  0.30773847  0.37273256     0.15200
C1309       C  0.96034225  0.26229043  0.40194619     0.36800
C1310       C  0.54875782  0.44519051  0.39617604     0.36700
N1311       N  0.94271972  0.22766815  0.42395466    -0.43500
N1312       N  0.56138783  0.48217936  0.40861048    -0.43500
C1313       C  0.87548093  0.32505245  0.35424088     0.00100
C1314       C  0.83152470  0.30384543  0.37568067    -0.11800
C1315       C  0.80496058  0.32318958  0.37428807     0.02300
C1316       C  0.82064325  0.36572004  0.34858119     0.00000
C1317       C  0.85910776  0.38111023  0.31375658    -0.11700
C1318       C  0.88682207  0.36188306  0.31759748     0.02200
H1319       H  0.81928239  0.27268323  0.39793677     0.15200
H1320       H  0.86914886  0.40991562  0.28649254     0.15200
C1321       C  0.92711758  0.38157247  0.28576620     0.36800
C1322       C  0.76405865  0.30094248  0.40667848     0.36700
N1323       N  0.96165934  0.39826063  0.26424224    -0.43500
N1324       N  0.73211218  0.28531034  0.43463260    -0.43500
C1325       C  0.62494871  0.44650199  0.14411263     0.00100
C1326       C  0.67141462  0.47099968  0.14506611    -0.11800
C1327       C  0.69655452  0.01810479  0.14432151     0.02300
C1328       C  0.67709057  0.04607802  0.14818143     0.00000
C1329       C  0.63082669  0.02051538  0.15475342    -0.11700
C1330       C  0.60569699  0.47381149  0.15345475     0.02200
H1331       H  0.68935275  0.45310388  0.14696757     0.15200
H1332       H  0.61052862  0.03479297  0.15351496     0.15400
C1333       C  0.56214995  0.45819669  0.17510309     0.36800
C1334       C  0.74242949  0.03360470  0.14320305     0.36700
N1335       N  0.53012910  0.44916088  0.19999998    -0.43500
N1336       N  0.77892916  0.04327961  0.14741145    -0.43500
C1337       C  0.70751250  0.09996872  0.06669192     0.00100
C1338       C  0.74877238  0.12083754  0.03678905    -0.11800
C1339       C  0.75174800  0.12696629  0.47558022     0.02300
C1340       C  0.71253969  0.11233602  0.44318850     0.00000
C1341       C  0.67274153  0.09585153  0.47448123    -0.11700
C1342       C  0.66907170  0.08497507  0.03169096     0.02200
H1343       H  0.77809019  0.13008833  0.06079686     0.15200
H1344       H  0.64202172  0.08391129  0.45095764     0.15200
C1345       C  0.62373837  0.05377085  0.04732858     0.36800
C1346       C  0.79339534  0.14158537  0.44683938     0.36700
N1347       N  0.58655166  0.02690628  0.05174204    -0.43500
N1348       N  0.82633957  0.15226665  0.42254721    -0.43500
C1349       C  0.67751215  0.12688716  0.14233256     0.00100
C1350       C  0.63583373  0.11030566  0.16845437    -0.11800
C1351       C  0.60635435  0.12330170  0.14807681     0.02300
C1352       C  0.62298415  0.16865314  0.13213446     0.00000
C1353       C  0.66772789  0.19028702  0.11397264    -0.11700
C1354       C  0.69410922  0.17001866  0.11654845     0.02200
H1355       H  0.62505780  0.08666729  0.20340665     0.15200
H1356       H  0.68119782  0.22247187  0.09493920     0.15200
C1357       C  0.73768511  0.19411026  0.09116384     0.36800
C1358       C  0.56571454  0.08674424  0.12540079     0.36700
N1359       N  0.77227414  0.21192861  0.06925171    -0.43500
N1360       N  0.53293700  0.05673485  0.10899997    -0.43500
O1361       O  0.72806078  0.32968194  0.82029423    -0.85100
O1362       O  0.65057446  0.24708145  0.79759338    -0.82200
C1363       C  0.61736416  0.23870017  0.82959938     0.98300
O1364       O  0.60266553  0.26562210  0.82718404    -0.82200
O1365       O  0.60196710  0.34565856  0.80643514    -0.84800
C1366       C  0.62803305  0.37821840  0.83835584     1.02900
O1367       O  0.66970052  0.39516856  0.82904316    -0.77600
O1368       O  0.74902215  0.39559413  0.78736548    -0.77800
C1369       C  0.75480219  0.37165334  0.82284676     1.02800
O1370       O  0.74315332  0.34641012  0.69693378    -0.85100
O1371       O  0.66387764  0.26422227  0.67284799    -0.82200
C1372       C  0.62197453  0.23966608  0.66779882     0.98400
O1373       O  0.59831068  0.24821727  0.70181774    -0.82200
O1374       O  0.60226387  0.32983315  0.68094792    -0.84800
C1375       C  0.61674995  0.37159755  0.67880080     1.02800
O1376       O  0.64662242  0.39648135  0.71352712    -0.77600
O1377       O  0.72030470  0.39120087  0.66935034    -0.77800
C1378       C  0.74825118  0.37819982  0.66386791     1.02800
Cr1379     Cr  0.69391019  0.29949072  0.74720418     1.93700
Cr1380     Cr  0.60604431  0.29977198  0.75387397     1.93200
Cr1381     Cr  0.69389593  0.38894690  0.75000661     1.39100
O1382       O  0.66441242  0.32912822  0.75092064    -1.22900
C1383       C  0.70253964  0.09912260  0.63414680    -0.02300
C1384       C  0.90382483  0.30242186  0.87295784    -0.02300
C1385       C  0.70453226  0.10408866  0.87664755    -0.02300
C1386       C  0.60756020  0.39693112  0.88584711    -0.02300
C1387       C  0.59943871  0.39316872  0.63521962    -0.02300
C1388       C  0.89675639  0.30926124  0.63327794    -0.02300
C1389       C  0.79211497  0.40284790  0.62492652    -0.02300
C1390       C  0.59216324  0.19277346  0.86459483    -0.02300
C1391       C  0.89464258  0.09997382  0.86668446    -0.02300
C1392       C  0.79702288  0.39358204  0.86301298    -0.02300
C1393       C  0.89999415  0.10316942  0.62960065    -0.02300
C1394       C  0.59776530  0.19608647  0.62667744    -0.02300
O1395       O  0.77036284  0.16817438  0.82937625    -0.85100
O1396       O  0.84691153  0.24810435  0.80795215    -0.82200
C1397       C  0.88313895  0.25881772  0.83237207     0.98300
O1398       O  0.90336190  0.23821801  0.81661809    -0.82200
O1399       O  0.89977225  0.15375132  0.79048222    -0.84800
C1400       C  0.87466365  0.12284759  0.82569855     1.02900
O1401       O  0.83401118  0.11093263  0.82428083    -0.77600
O1402       O  0.75094691  0.10185830  0.79775854    -0.77800
C1403       C  0.74536125  0.12604102  0.83389901     1.02800
O1404       O  0.75152644  0.15771281  0.70540976    -0.85100
O1405       O  0.83471112  0.24177238  0.68590959    -0.82200
C1406       C  0.87618731  0.26461769  0.67298551     0.98400
O1407       O  0.90125074  0.25151141  0.69348445    -0.82200
O1408       O  0.89442008  0.16807404  0.67002834    -0.84800
C1409       C  0.87817191  0.12600676  0.66729504     1.02800
O1410       O  0.84706940  0.10316429  0.70207879    -0.77600
O1411       O  0.77393838  0.11280523  0.67639808    -0.77800
C1412       C  0.74574825  0.12522683  0.67287417     1.02800
Cr1413     Cr  0.80384390  0.20110670  0.75591281     1.93700
Cr1414     Cr  0.89373328  0.20030889  0.74365358     1.93200
Cr1415     Cr  0.80431005  0.11288509  0.75004727     1.39100
O1416       O  0.83422930  0.17211344  0.74963244    -1.22900
C1417       C  0.54650792  0.17343580  0.64336028     0.00100
C1418       C  0.52436879  0.19465047  0.62055896    -0.11800
C1419       C  0.97815584  0.17589615  0.62308271     0.02300
C1420       C  0.95081373  0.13177878  0.64445509     0.00000
C1421       C  0.97266434  0.11380178  0.67473060    -0.11700
C1422       C  0.51918499  0.13506393  0.67776793     0.02200
H1423       H  0.54371536  0.22569642  0.59756922     0.15200
H1424       H  0.95332928  0.08176460  0.69445353     0.15200
C1425       C  0.53531335  0.11477603  0.71643774     0.36800
C1426       C  0.95981565  0.19762927  0.58988185     0.36700
N1427       N  0.54546252  0.09342209  0.74327662    -0.43500
N1428       N  0.94566008  0.21408265  0.56039962    -0.43500
C1429       C  0.89396750  0.10390106  0.56049801     0.00100
C1430       C  0.93193543  0.11901649  0.52521461    -0.11800
C1431       C  0.93405655  0.13060939  0.96822702     0.02300
C1432       C  0.89512648  0.11197408  0.93362695     0.00000
C1433       C  0.85515098  0.08955583  0.96641078    -0.11700
C1434       C  0.85411318  0.08275239  0.52733497     0.02200
H1435       H  0.96310527  0.12552896  0.54258048     0.15200
H1436       H  0.82440020  0.07148349  0.94329919     0.15200
C1437       C  0.81714580  0.04044574  0.54442232     0.36800
C1438       C  0.97563569  0.17095621  0.95767215     0.36700
N1439       N  0.78798357  0.00429603  0.55163099    -0.43500
N1440       N  0.00877672  0.20465176  0.95523018    -0.43500
C1441       C  0.86701979  0.04594904  0.86447896     0.00100
C1442       C  0.88619605  0.02221500  0.88805873    -0.11800
C1443       C  0.87061182  0.47653586  0.87460628     0.02300
C1444       C  0.82607318  0.44717743  0.85504348     0.00000
C1445       C  0.80223795  0.46976569  0.85038666    -0.11700
C1446       C  0.82128792  0.01665434  0.85027639     0.02200
H1447       H  0.91770059  0.04095378  0.90973214     0.15200
H1448       H  0.76661758  0.45043475  0.85014656     0.15200
C1449       C  0.78789412  0.02886125  0.84662324     0.36800
C1450       C  0.90628208  0.46761162  0.86742095     0.36700
N1451       N  0.75780683  0.03405823  0.84374327    -0.43500
N1452       N  0.93825917  0.46678720  0.85591343    -0.43500
C1453       C  0.58829688  0.19663121  0.93275178     0.00100
C1454       C  0.60814399  0.23802631  0.96331651    -0.11800
C1455       C  0.61390503  0.24081693  0.52472775     0.02300
C1456       C  0.59725181  0.20149798  0.55858305     0.00000
C1457       C  0.57313262  0.16114996  0.52820437    -0.11700
C1458       C  0.57096814  0.15771782  0.96850081     0.02200
H1459       H  0.61979464  0.26816037  0.93922031     0.15200
H1460       H  0.55565066  0.13056634  0.55199656     0.15200
C1461       C  0.55578630  0.11269694  0.94830139     0.36800
C1462       C  0.63436674  0.28381587  0.55220443     0.36700
N1463       N  0.54443724  0.07582520  0.93673820    -0.43500
N1464       N  0.65002433  0.31770917  0.57622098    -0.43500
C1465       C  0.54237342  0.16566154  0.84156716     0.00100
C1466       C  0.51549525  0.11847414  0.84206931    -0.11800
C1467       C  0.96876147  0.09658623  0.83393920     0.02300
C1468       C  0.94543127  0.11987063  0.84627919     0.00000
C1469       C  0.97280234  0.16655405  0.84225572    -0.11700
C1470       C  0.51800678  0.18747431  0.83012513     0.02200
H1471       H  0.53110024  0.09849553  0.84264208     0.15200
H1472       H  0.95935100  0.18832656  0.84775523     0.15200
C1473       C  0.52371151  0.21014100  0.77710407     0.36800
C1474       C  0.94960652  0.05675380  0.79878715     0.36700
N1475       N  0.51984991  0.22383569  0.73383144    -0.43500
N1476       N  0.93512329  0.02584130  0.76852755    -0.43500
C1477       C  0.82101510  0.45601999  0.63633675     0.00100
C1478       C  0.85476364  0.48254072  0.59603362    -0.11800
C1479       C  0.88918124  0.02511388  0.60642602     0.02300
C1480       C  0.88175495  0.05215833  0.64488256     0.00000
C1481       C  0.85149395  0.02786409  0.69007209    -0.11700
C1482       C  0.81939951  0.48167260  0.68440920     0.02200
H1483       H  0.85135894  0.47540620  0.55092272     0.15200
H1484       H  0.85069813  0.04433174  0.72938609     0.15200
C1485       C  0.77972035  0.47018292  0.71639618     0.36800
C1486       C  0.92865316  0.04001965  0.57131294     0.36700
N1487       N  0.74877124  0.46678240  0.74015804    -0.43500
N1488       N  0.95947254  0.04968087  0.54231942    -0.43500
C1489       C  0.78830064  0.39613174  0.55624908     0.00100
C1490       C  0.74999984  0.38531554  0.52404165    -0.11800
C1491       C  0.74898875  0.37953880  0.96248778     0.02300
C1492       C  0.78813771  0.39021693  0.93041965     0.00000
C1493       C  0.82465285  0.39928516  0.96298692    -0.11700
C1494       C  0.82527991  0.40045354  0.52229928     0.02200
H1495       H  0.72104919  0.38120961  0.54665524     0.15200
H1496       H  0.85456741  0.40637390  0.94058132     0.15200
C1497       C  0.86968081  0.41810559  0.54309417     0.36800
C1498       C  0.70717556  0.35850552  0.93427798     0.36700
N1499       N  0.90654405  0.43804589  0.55574668    -0.43500
N1500       N  0.67386345  0.34104614  0.91041425    -0.43500
C1501       C  0.81726002  0.37759853  0.64296434     0.00100
C1502       C  0.85842981  0.39895817  0.66992019    -0.11800
C1503       C  0.88688274  0.38088349  0.66628331     0.02300
C1504       C  0.87042294  0.33463935  0.65073107     0.00000
C1505       C  0.82503014  0.31101322  0.63729918    -0.11700
C1506       C  0.80050612  0.33198017  0.62777647     0.02200
H1507       H  0.87197796  0.43345804  0.68361165     0.15200
H1508       H  0.81066571  0.27723680  0.62325991     0.15200
C1509       C  0.76157367  0.30809742  0.59291084     0.36800
C1510       C  0.93182934  0.41642381  0.66266339     0.36700
N1511       N  0.73247822  0.29251942  0.56103694    -0.43500
N1512       N  0.96381945  0.45077043  0.65732026    -0.43500
C1513       C  0.54688766  0.37349489  0.64075264     0.00100
C1514       C  0.52709789  0.38392427  0.59614929    -0.11800
C1515       C  0.98164442  0.37025315  0.59533067     0.02300
C1516       C  0.95027468  0.34053372  0.63861670     0.00000
C1517       C  0.97146464  0.33512481  0.68613785    -0.11700
C1518       C  0.51644461  0.34675685  0.68543171     0.02200
H1519       H  0.54902010  0.40646693  0.56271970     0.15200
H1520       H  0.95238201  0.32005806  0.72508178     0.15200
C1521       C  0.52526049  0.32313354  0.72761156     0.36800
C1522       C  0.97680722  0.40159644  0.56094955     0.36700
N1523       N  0.52580276  0.29934223  0.76131947    -0.43500
N1524       N  0.98119076  0.43203213  0.53516701    -0.43500
C1525       C  0.61084136  0.38294313  0.57220684     0.00100
C1526       C  0.65139023  0.40923732  0.54183384    -0.11800
C1527       C  0.65400102  0.40762776  0.98113701     0.02300
C1528       C  0.61474710  0.38269372  0.94849510     0.00000
C1529       C  0.58059027  0.34628566  0.98027294    -0.11700
C1530       C  0.57974978  0.34591733  0.54051634     0.02200
H1531       H  0.68172649  0.43119627  0.56310591     0.15200
H1532       H  0.55412235  0.31715592  0.96103792     0.15200
C1533       C  0.54655520  0.30800933  0.57081194     0.36800
C1534       C  0.69662058  0.43600757  0.95500728     0.36700
N1535       N  0.52191849  0.28266334  0.60359834    -0.43500
N1536       N  0.73197928  0.45912725  0.93717859    -0.43500
C1537       C  0.62160379  0.16939583  0.85940304     0.00100
C1538       C  0.65976798  0.18719256  0.89376623    -0.11800
C1539       C  0.68948705  0.17122395  0.89130521     0.02300
C1540       C  0.67759791  0.12924899  0.86332217     0.00000
C1541       C  0.63943807  0.11267001  0.82824275    -0.11700
C1542       C  0.62243132  0.14155051  0.81481462     0.02200
H1543       H  0.66676240  0.21434176  0.92271302     0.15200
H1544       H  0.62900162  0.08275915  0.80300969     0.15200
C1545       C  0.64797461  0.16943447  0.76755599     0.36800
C1546       C  0.72938815  0.19697137  0.92372354     0.36700
N1547       N  0.67460514  0.19542717  0.73662277    -0.43500
N1548       N  0.76007363  0.21652032  0.95244456    -0.43500
C1549       C  0.63141055  0.45037405  0.87971250     0.00100
C1550       C  0.64483779  0.47813154  0.92776728    -0.11800
C1551       C  0.67732729  0.02252897  0.92214372     0.02300
C1552       C  0.67945645  0.04931140  0.87323357     0.00000
C1553       C  0.65727624  0.02206953  0.82442701    -0.11700
C1554       C  0.63579521  0.47373123  0.82758350     0.02200
H1555       H  0.63497185  0.46504687  0.97087353     0.15200
H1556       H  0.65717538  0.03764254  0.78423898     0.15200
C1557       C  0.60854613  0.44609976  0.78319790     0.36800
C1558       C  0.71293788  0.03331157  0.96104208     0.36700
N1559       N  0.58171132  0.41659538  0.75747616    -0.43500
N1560       N  0.74002343  0.03857587  0.99327780    -0.43500
C1561       C  0.88772049  0.29718329  0.56665115     0.00100
C1562       C  0.89100756  0.33126340  0.53243051    -0.11800
C1563       C  0.89936405  0.33400487  0.97392606     0.02300
C1564       C  0.89539721  0.29731066  0.94095431     0.00000
C1565       C  0.88164883  0.25800797  0.97345444    -0.11700
C1566       C  0.87924907  0.25788682  0.53539862     0.02200
H1567       H  0.89305406  0.35998307  0.55301389     0.15200
H1568       H  0.87421548  0.22799594  0.95089878     0.15200
C1569       C  0.86467529  0.21627261  0.56395382     0.36800
C1570       C  0.91425341  0.37770508  0.95218476     0.36700
N1571       N  0.85243933  0.18218649  0.58599281    -0.43500
N1572       N  0.92823487  0.41484014  0.94122050    -0.43500
C1573       C  0.95687188  0.32857160  0.86844580     0.00100
C1574       C  0.98375975  0.37557975  0.87288226    -0.11800
C1575       C  0.53026927  0.39861708  0.88068071     0.02300
C1576       C  0.55487073  0.37550208  0.87759408     0.00000
C1577       C  0.52763876  0.32851801  0.87300729    -0.11700
C1578       C  0.98104416  0.30612897  0.87687201     0.02200
H1579       H  0.96880844  0.39580873  0.87386658     0.15200
H1580       H  0.54268937  0.30773803  0.87273243     0.15200
C1581       C  0.96034258  0.26229069  0.90194631     0.36800
C1582       C  0.54875756  0.44519018  0.89617539     0.36700
N1583       N  0.94272014  0.22766851  0.92395497    -0.43500
N1584       N  0.56138761  0.48217904  0.90860981    -0.43500
C1585       C  0.87548108  0.32505239  0.85424073     0.00100
C1586       C  0.83152483  0.30384523  0.87568045    -0.11800
C1587       C  0.80496064  0.32318928  0.87428787     0.02300
C1588       C  0.82064320  0.36571966  0.84858086     0.00000
C1589       C  0.85910760  0.38110981  0.81375608    -0.11700
C1590       C  0.88682217  0.36188293  0.81759724     0.02200
H1591       H  0.81928267  0.27268310  0.89793646     0.15200
H1592       H  0.86914854  0.40991510  0.78649187     0.15200
C1593       C  0.92711773  0.38157241  0.78576600     0.36800
C1594       C  0.76405867  0.30094209  0.90667820     0.36700
N1595       N  0.96165954  0.39826072  0.76424207    -0.43500
N1596       N  0.73211209  0.28530983  0.93463206    -0.43500
C1597       C  0.62494878  0.44650168  0.64411247     0.00100
C1598       C  0.67141466  0.47099940  0.64506637    -0.11800
C1599       C  0.69655475  0.01810455  0.64432106     0.02300
C1600       C  0.67709079  0.04607772  0.64818146     0.00000
C1601       C  0.63082697  0.02051500  0.65475365    -0.11700
C1602       C  0.60569701  0.47381115  0.65345415     0.02200
H1603       H  0.68935277  0.45310359  0.64696796     0.15200
H1604       H  0.61052879  0.03479272  0.65351541     0.15400
C1605       C  0.56214982  0.45819605  0.67510199     0.36800
C1606       C  0.74242973  0.03360462  0.64320200     0.36700
N1607       N  0.53012848  0.44915930  0.69999817    -0.43500
N1608       N  0.77892948  0.04327976  0.64741000    -0.43500
C1609       C  0.70751267  0.09996849  0.56669200     0.00100
C1610       C  0.74877255  0.12083725  0.53678901    -0.11800
C1611       C  0.75174796  0.12696663  0.97558028     0.02300
C1612       C  0.71253968  0.11233617  0.94318841     0.00000
C1613       C  0.67274143  0.09585158  0.97448099    -0.11700
C1614       C  0.66907182  0.08497492  0.53169114     0.02200
H1615       H  0.77809039  0.13008807  0.56079661     0.15200
H1616       H  0.64202172  0.08391131  0.95095737     0.15200
C1617       C  0.62373851  0.05377058  0.54732883     0.36800
C1618       C  0.79339539  0.14158581  0.94683961     0.36700
N1619       N  0.58655188  0.02690577  0.55174229    -0.43500
N1620       N  0.82633963  0.15226706  0.92254749    -0.43500
C1621       C  0.67751225  0.12688673  0.64233293     0.00100
C1622       C  0.63583384  0.11030520  0.66845486    -0.11800
C1623       C  0.60635443  0.12330115  0.64807708     0.02300
C1624       C  0.62298421  0.16865260  0.63213470     0.00000
C1625       C  0.66772795  0.19028646  0.61397296    -0.11700
C1626       C  0.69410932  0.17001821  0.61654885     0.02200
H1627       H  0.62505790  0.08666682  0.70340695     0.15200
H1628       H  0.68119801  0.22247153  0.59493940     0.15200
C1629       C  0.73768531  0.19410983  0.59116451     0.36800
C1630       C  0.56571468  0.08674362  0.62540104     0.36700
N1631       N  0.77227445  0.21192811  0.56925270    -0.43500
N1632       N  0.53293717  0.05673411  0.60900026    -0.43500
O1633       O  0.72806092  0.82968249  0.32029442    -0.85100
O1634       O  0.65057476  0.74708172  0.29759349    -0.82200
C1635       C  0.61736453  0.73870053  0.32959963     0.98300
O1636       O  0.60266607  0.76562261  0.32718432    -0.82200
O1637       O  0.60196722  0.84565880  0.30643526    -0.84800
C1638       C  0.62803314  0.87821873  0.33835583     1.02900
O1639       O  0.66970058  0.89516887  0.32904312    -0.77600
O1640       O  0.74902225  0.89559465  0.28736562    -0.77800
C1641       C  0.75480230  0.87165389  0.32284696     1.02800
O1642       O  0.74315361  0.84641070  0.19693401    -0.85100
O1643       O  0.66387784  0.76422246  0.17284825    -0.82200
C1644       C  0.62197467  0.73966631  0.16779914     0.98400
O1645       O  0.59831092  0.74821768  0.20181794    -0.82200
O1646       O  0.60226379  0.82983337  0.18094813    -0.84800
C1647       C  0.61674994  0.87159780  0.17880077     1.02800
O1648       O  0.64662266  0.89648172  0.21352670    -0.77600
O1649       O  0.72030491  0.89120132  0.16935028    -0.77800
C1650       C  0.74825144  0.87820032  0.16386803     1.02800
Cr1651     Cr  0.69391046  0.79949115  0.24720432     1.93700
Cr1652     Cr  0.60604457  0.79977235  0.25387414     1.93200
Cr1653     Cr  0.69389608  0.88894733  0.25000651     1.39100
O1654       O  0.66441266  0.82912865  0.25092052    -1.22900
C1655       C  0.70253962  0.59912279  0.13414680    -0.02300
C1656       C  0.90382448  0.80242179  0.37295754    -0.02300
C1657       C  0.70453205  0.60408849  0.37664736    -0.02300
C1658       C  0.60756032  0.89693152  0.38584702    -0.02300
C1659       C  0.59943853  0.89316885  0.13521965    -0.02300
C1660       C  0.89675605  0.80926120  0.13327782    -0.02300
C1661       C  0.79211515  0.90284828  0.12492656    -0.02300
C1662       C  0.59216348  0.69277374  0.36459515    -0.02300
C1663       C  0.89464235  0.59997377  0.36668395    -0.02300
C1664       C  0.79702301  0.89358258  0.36301321    -0.02300
C1665       C  0.89999388  0.60316948  0.12960011    -0.02300
C1666       C  0.59776531  0.69608658  0.12667794    -0.02300
O1667       O  0.77036265  0.66817425  0.32937599    -0.85100
O1668       O  0.84691131  0.74810436  0.30795171    -0.82200
C1669       C  0.88313866  0.75881764  0.33237175     0.98300
O1670       O  0.90336152  0.73821781  0.31661789    -0.82200
O1671       O  0.89977183  0.65375111  0.29048166    -0.84800
C1672       C  0.87466333  0.62284751  0.32569816     1.02900
O1673       O  0.83401090  0.61093268  0.32428066    -0.77600
O1674       O  0.75094662  0.60185818  0.29775815    -0.77800
C1675       C  0.74536101  0.62604088  0.33389871     1.02800
O1676       O  0.75152641  0.65771297  0.20540951    -0.85100
O1677       O  0.83471078  0.74177230  0.18590938    -0.82200
C1678       C  0.87618698  0.76461764  0.17298539     0.98400
O1679       O  0.90125038  0.75151134  0.19348431    -0.82200
O1680       O  0.89441992  0.66807410  0.17002806    -0.84800
C1681       C  0.87817165  0.62600680  0.16729456     1.02800
O1682       O  0.84706913  0.60316428  0.20207829    -0.77600
O1683       O  0.77393812  0.61280510  0.17639806    -0.77800
C1684       C  0.74574818  0.62522692  0.17287405     1.02800
Cr1685     Cr  0.80384369  0.70110669  0.25591255     1.93700
Cr1686     Cr  0.89373298  0.70030880  0.24365331     1.93200
Cr1687     Cr  0.80430981  0.61288502  0.25004703     1.39100
O1688       O  0.83422904  0.67211337  0.24963211    -1.22900
C1689       C  0.54650790  0.67343607  0.14336053     0.00100
C1690       C  0.52436885  0.69465075  0.12055880    -0.11800
C1691       C  0.97815553  0.67589631  0.12308230     0.02300
C1692       C  0.95081342  0.63177892  0.14445463     0.00000
C1693       C  0.97266399  0.61380198  0.17473024    -0.11700
C1694       C  0.51918492  0.63506448  0.17776858     0.02200
H1695       H  0.54371548  0.72569665  0.09756891     0.15200
H1696       H  0.95332879  0.58176465  0.19445325     0.15200
C1697       C  0.53531322  0.61477658  0.21643854     0.36800
C1698       C  0.95981543  0.69762939  0.08988113     0.36700
N1699       N  0.54546231  0.59342259  0.24327740    -0.43500
N1700       N  0.94566005  0.71408279  0.06039858    -0.43500
C1701       C  0.89396724  0.60390098  0.06049746     0.00100
C1702       C  0.93193520  0.61901641  0.02521412    -0.11800
C1703       C  0.93405626  0.63060915  0.46822652     0.02300
C1704       C  0.89512623  0.61197390  0.43362650     0.00000
C1705       C  0.85515074  0.58955571  0.46641030    -0.11700
C1706       C  0.85411290  0.58275215  0.02733439     0.02200
H1707       H  0.96310515  0.62552908  0.04258019     0.15200
H1708       H  0.82439996  0.57148349  0.44329865     0.15200
C1709       C  0.81714557  0.54044536  0.04442163     0.36800
C1710       C  0.97563534  0.67095590  0.45767122     0.36700
N1711       N  0.78798347  0.50429559  0.05163030    -0.43500
N1712       N  0.00877624  0.70465148  0.45522869    -0.43500
C1713       C  0.86701975  0.54594900  0.36447838     0.00100
C1714       C  0.88619601  0.52221500  0.38805833    -0.11800
C1715       C  0.87061190  0.97653641  0.37460681     0.02300
C1716       C  0.82607330  0.94717800  0.35504382     0.00000
C1717       C  0.80223815  0.96976630  0.35038684    -0.11700
C1718       C  0.82128796  0.51665427  0.35027574     0.02200
H1719       H  0.91770049  0.54095381  0.40973191     0.15200
H1720       H  0.76661769  0.95043531  0.35014637     0.15200
C1721       C  0.78789420  0.52886122  0.34662287     0.36800
C1722       C  0.90628221  0.96761222  0.36742153     0.36700
N1723       N  0.75780700  0.53405836  0.34374309    -0.43500
N1724       N  0.93825940  0.96678799  0.35591409    -0.43500
C1725       C  0.58829728  0.69663125  0.43275228     0.00100
C1726       C  0.60814440  0.73802627  0.46331724    -0.11800
C1727       C  0.61390480  0.74081673  0.02472815     0.02300
C1728       C  0.59725189  0.70149782  0.05858348     0.00000
C1729       C  0.57313318  0.66114972  0.02820476    -0.11700
C1730       C  0.57096873  0.65771774  0.46850120     0.02200
H1731       H  0.61979498  0.76816040  0.43922119     0.15200
H1732       H  0.55565159  0.63056595  0.05199699     0.15200
C1733       C  0.55578674  0.61269685  0.44830162     0.36800
C1734       C  0.63436619  0.78381571  0.05220475     0.36700
N1735       N  0.54443758  0.57582508  0.43673837    -0.43500
N1736       N  0.65002355  0.81770904  0.07622117    -0.43500
C1737       C  0.54237357  0.66566193  0.34156769     0.00100
C1738       C  0.51549530  0.61847455  0.34207021    -0.11800
C1739       C  0.96876120  0.59658634  0.33393853     0.02300
C1740       C  0.94543099  0.61987068  0.34627853     0.00000
C1741       C  0.97280198  0.66655404  0.34225469    -0.11700
C1742       C  0.51800698  0.68747473  0.33012539     0.02200
H1743       H  0.53110027  0.59849591  0.34264298     0.15200
H1744       H  0.95935059  0.68832661  0.34775421     0.15200
C1745       C  0.52371192  0.71014159  0.27710439     0.36800
C1746       C  0.94960607  0.55675391  0.29878658     0.36700
N1747       N  0.51985043  0.72383647  0.23383185    -0.43500
N1748       N  0.93512236  0.52584132  0.26852715    -0.43500
C1749       C  0.82101518  0.95602036  0.13633657     0.00100
C1750       C  0.85476351  0.98254106  0.09603321    -0.11800
C1751       C  0.88918101  0.52511384  0.10642580     0.02300
C1752       C  0.88175471  0.55215839  0.14488215     0.00000
C1753       C  0.85149385  0.52786421  0.19007174    -0.11700
C1754       C  0.81939984  0.98167290  0.18440927     0.02200
H1755       H  0.85135863  0.97540654  0.05092241     0.15200
H1756       H  0.85069820  0.54433199  0.22938585     0.15200
C1757       C  0.77972069  0.97018332  0.21639626     0.36800
C1758       C  0.92865283  0.54001966  0.07131264     0.36700
N1759       N  0.74877156  0.96678290  0.24015791    -0.43500
N1760       N  0.95947233  0.54968128  0.04231914    -0.43500
C1761       C  0.78830065  0.89613185  0.05624923     0.00100
C1762       C  0.74999960  0.88531515  0.02404196    -0.11800
C1763       C  0.74898882  0.87953870  0.46248820     0.02300
C1764       C  0.78813784  0.89021724  0.43041991     0.00000
C1765       C  0.82465308  0.89928559  0.46298707    -0.11700
C1766       C  0.82527992  0.90045374  0.02229938     0.02200
H1767       H  0.72104901  0.88120899  0.04665553     0.15200
H1768       H  0.85456766  0.90637465  0.44058136     0.15200
C1769       C  0.86968093  0.91810607  0.04309406     0.36800
C1770       C  0.70717557  0.85850546  0.43427844     0.36700
N1771       N  0.90654422  0.93804644  0.05574640    -0.43500
N1772       N  0.67386358  0.84104627  0.41041447    -0.43500
C1773       C  0.81726026  0.87759899  0.14296445     0.00100
C1774       C  0.85843025  0.89895871  0.16991976    -0.11800
C1775       C  0.88688290  0.88088368  0.16628300     0.02300
C1776       C  0.87042282  0.83463942  0.15073128     0.00000
C1777       C  0.82502995  0.81101341  0.13730005    -0.11700
C1778       C  0.80050610  0.83198048  0.12777718     0.02200
H1779       H  0.87197870  0.93345875  0.18361062     0.15200
H1780       H  0.81066514  0.77723669  0.12326102     0.15200
C1781       C  0.76157346  0.80809767  0.09291194     0.36800
C1782       C  0.93182959  0.91642360  0.16266239     0.36700
N1783       N  0.73247788  0.79251983  0.06103829    -0.43500
N1784       N  0.96381997  0.95076978  0.15731833    -0.43500
C1785       C  0.54688752  0.87349519  0.14075290     0.00100
C1786       C  0.52709764  0.88392451  0.09614968    -0.11800
C1787       C  0.98164416  0.87025319  0.09533041     0.02300
C1788       C  0.95027436  0.84053360  0.13861634     0.00000
C1789       C  0.97146429  0.83512492  0.18613767    -0.11700
C1790       C  0.51644461  0.84675748  0.18543219     0.02200
H1791       H  0.54901989  0.90646719  0.06271985     0.15200
H1792       H  0.95238150  0.82005809  0.22508158     0.15200
C1793       C  0.52526061  0.82313422  0.22761182     0.36800
C1794       C  0.97680668  0.90159576  0.06094814     0.36700
N1795       N  0.52580291  0.79934274  0.26131941    -0.43500
N1796       N  0.98119022  0.93203124  0.03516502    -0.43500
C1797       C  0.61084092  0.88294295  0.07220695     0.00100
C1798       C  0.65138995  0.90923660  0.04183407    -0.11800
C1799       C  0.65400121  0.90762768  0.48113654     0.02300
C1800       C  0.61474720  0.88269386  0.44849477     0.00000
C1801       C  0.58059040  0.84628551  0.48027237    -0.11700
C1802       C  0.57974903  0.84591732  0.04051649     0.02200
H1803       H  0.68172621  0.93119502  0.06310617     0.15200
H1804       H  0.55412249  0.81715593  0.46103739     0.15200
C1805       C  0.54655425  0.80800937  0.07081212     0.36800
C1806       C  0.69662072  0.93600774  0.45500673     0.36700
N1807       N  0.52191747  0.78266332  0.10359847    -0.43500
N1808       N  0.73197932  0.95912766  0.43717798    -0.43500
C1809       C  0.62160385  0.66939596  0.35940306     0.00100
C1810       C  0.65976809  0.68719255  0.39376606    -0.11800
C1811       C  0.68948703  0.67122384  0.39130499     0.02300
C1812       C  0.67759766  0.62924877  0.36332208     0.00000
C1813       C  0.63943763  0.61266980  0.32824299    -0.11700
C1814       C  0.62243128  0.64155061  0.31481458     0.02200
H1815       H  0.66676271  0.71434192  0.42271290     0.15200
H1816       H  0.62900067  0.58275859  0.30301039     0.15200
C1817       C  0.64797544  0.66943484  0.26755653     0.36800
C1818       C  0.72938822  0.69697125  0.42372317     0.36700
N1819       N  0.67460652  0.69542745  0.23662376    -0.43500
N1820       N  0.76007377  0.71652023  0.45244404    -0.43500
C1821       C  0.63141071  0.95037452  0.37971258     0.00100
C1822       C  0.64483814  0.97813197  0.42776740    -0.11800
C1823       C  0.67732682  0.52252883  0.42214374     0.02300
C1824       C  0.67945620  0.54931125  0.37323344     0.00000
C1825       C  0.65727598  0.52206934  0.32442689    -0.11700
C1826       C  0.63579531  0.97373181  0.32758367     0.02200
H1827       H  0.63497253  0.96504725  0.47087363     0.15200
H1828       H  0.65717502  0.53764235  0.28423888     0.15200
C1829       C  0.60854639  0.94610050  0.28319795     0.36800
C1830       C  0.71293717  0.53331132  0.46104259     0.36700
N1831       N  0.58171179  0.91659619  0.25747590    -0.43500
N1832       N  0.74002229  0.53857539  0.49327889    -0.43500
C1833       C  0.88771985  0.79718321  0.06665109     0.00100
C1834       C  0.89100666  0.83126319  0.03243042    -0.11800
C1835       C  0.89936323  0.83400463  0.47392586     0.02300
C1836       C  0.89539661  0.79731057  0.44095402     0.00000
C1837       C  0.88164852  0.75800802  0.47345414    -0.11700
C1838       C  0.87924865  0.75788684  0.03539856     0.02200
H1839       H  0.89305320  0.85998290  0.05301377     0.15200
H1840       H  0.87421540  0.72799610  0.45089838     0.15200
C1841       C  0.86467517  0.71627274  0.06395371     0.36800
C1842       C  0.91425270  0.87770477  0.45218453     0.36700
N1843       N  0.85243929  0.68218662  0.08599261    -0.43500
N1844       N  0.92823429  0.91483981  0.44122013    -0.43500
C1845       C  0.95687154  0.82857134  0.36844593     0.00100
C1846       C  0.98375945  0.87557941  0.37288243    -0.11800
C1847       C  0.53026942  0.89861751  0.38068129     0.02300
C1848       C  0.55487089  0.87550256  0.37759412     0.00000
C1849       C  0.52763897  0.82851849  0.37300703    -0.11700
C1850       C  0.98104378  0.80612868  0.37687236     0.02200
H1851       H  0.96880807  0.89580849  0.37386660     0.15200
H1852       H  0.54268955  0.80773858  0.37273190     0.15200
C1853       C  0.96034205  0.76229022  0.40194595     0.36800
C1854       C  0.54875775  0.94519070  0.39617560     0.36700
N1855       N  0.94271943  0.72766792  0.42395426    -0.43500
N1856       N  0.56138775  0.98217963  0.40860961    -0.43500
C1857       C  0.87548090  0.82505248  0.35424012     0.00100
C1858       C  0.83152464  0.80384543  0.37567974    -0.11800
C1859       C  0.80496068  0.82318973  0.37428760     0.02300
C1860       C  0.82064339  0.86572026  0.34858095     0.00000
C1861       C  0.85910779  0.88111039  0.31375619    -0.11700
C1862       C  0.88682215  0.86188327  0.31759694     0.02200
H1863       H  0.81928231  0.77268319  0.39793547     0.15200
H1864       H  0.86914885  0.90991588  0.28649205     0.15200
C1865       C  0.92711778  0.88157286  0.28576590     0.36800
C1866       C  0.76405869  0.80094246  0.40667778     0.36700
N1867       N  0.96165965  0.89826124  0.26424220    -0.43500
N1868       N  0.73211210  0.78531004  0.43463170    -0.43500
C1869       C  0.62494871  0.94650189  0.14411214     0.00100
C1870       C  0.67141462  0.97099969  0.14506580    -0.11800
C1871       C  0.69655453  0.51810471  0.14432125     0.02300
C1872       C  0.67709066  0.54607793  0.14818163     0.00000
C1873       C  0.63082658  0.52051561  0.15475413    -0.11700
C1874       C  0.60569698  0.97381143  0.15345388     0.02200
H1875       H  0.68935276  0.95310397  0.14696736     0.15200
H1876       H  0.61052884  0.53479216  0.15351521     0.15400
C1877       C  0.56214977  0.95819642  0.17510150     0.36800
C1878       C  0.74242953  0.53360465  0.14320136     0.36700
N1879       N  0.53012838  0.94915980  0.19999745    -0.43500
N1880       N  0.77892927  0.54327968  0.14740889    -0.43500
C1881       C  0.70751263  0.59996861  0.06669210     0.00100
C1882       C  0.74877253  0.62083742  0.03678915    -0.11800
C1883       C  0.75174799  0.62696654  0.47557992     0.02300
C1884       C  0.71253963  0.61233609  0.44318819     0.00000
C1885       C  0.67274150  0.59585172  0.47448098    -0.11700
C1886       C  0.66907175  0.58497490  0.03169129     0.02200
H1887       H  0.77809032  0.63008835  0.06079680     0.15200
H1888       H  0.64202169  0.58391157  0.45095753     0.15200
C1889       C  0.62373844  0.55377071  0.04732909     0.36800
C1890       C  0.79339545  0.64158594  0.44683921     0.36700
N1891       N  0.58655177  0.52690595  0.05174248    -0.43500
N1892       N  0.82633980  0.65226755  0.42254719    -0.43500
C1893       C  0.67751241  0.62688701  0.14233300     0.00100
C1894       C  0.63583439  0.61030575  0.16845570    -0.11800
C1895       C  0.60635470  0.62330148  0.14807857     0.02300
C1896       C  0.62298426  0.66865279  0.13213566     0.00000
C1897       C  0.66772791  0.69028668  0.11397350    -0.11700
C1898       C  0.69410936  0.67001848  0.11654897     0.02200
H1899       H  0.62505891  0.58666754  0.20340815     0.15200
H1900       H  0.68119769  0.72247150  0.09493967     0.15200
C1901       C  0.73768526  0.69411020  0.09116426     0.36800
C1902       C  0.56571503  0.58674375  0.12540287     0.36700
N1903       N  0.77227427  0.71192866  0.06925211    -0.43500
N1904       N  0.53293762  0.55673387  0.10900250    -0.43500
O1905       O  0.72806084  0.82968250  0.82029469    -0.85100
O1906       O  0.65057494  0.74708163  0.79759378    -0.82200
C1907       C  0.61736465  0.73870036  0.82959983     0.98300
O1908       O  0.60266615  0.76562242  0.82718452    -0.82200
O1909       O  0.60196745  0.84565879  0.80643554    -0.84800
C1910       C  0.62803339  0.87821879  0.83835600     1.02900
O1911       O  0.66970084  0.89516899  0.82904311    -0.77600
O1912       O  0.74902244  0.89559464  0.78736553    -0.77800
C1913       C  0.75480227  0.87165386  0.82284714     1.02800
O1914       O  0.74315377  0.84641054  0.69693412    -0.85100
O1915       O  0.66387812  0.76422243  0.67284858    -0.82200
C1916       C  0.62197498  0.73966642  0.66779923     0.98400
O1917       O  0.59831113  0.74821777  0.70181792    -0.82200
O1918       O  0.60226398  0.82983327  0.68094829    -0.84800
C1919       C  0.61675021  0.87159768  0.67880063     1.02800
O1920       O  0.64662282  0.89648165  0.71352667    -0.77600
O1921       O  0.72030501  0.89120108  0.66935026    -0.77800
C1922       C  0.74825156  0.87820010  0.66386802     1.02800
Cr1923     Cr  0.69391061  0.79949108  0.74720459     1.93700
Cr1924     Cr  0.60604472  0.79977228  0.75387434     1.93200
Cr1925     Cr  0.69389623  0.88894725  0.75000648     1.39100
O1926       O  0.66441279  0.82912855  0.75092069    -1.22900
C1927       C  0.70253962  0.59912261  0.63414646    -0.02300
C1928       C  0.90382415  0.80242150  0.87295783    -0.02300
C1929       C  0.70453202  0.60408812  0.87664766    -0.02300
C1930       C  0.60756052  0.89693159  0.88584723    -0.02300
C1931       C  0.59943884  0.89316864  0.63521922    -0.02300
C1932       C  0.89675623  0.80926114  0.63327766    -0.02300
C1933       C  0.79211528  0.90284810  0.62492644    -0.02300
C1934       C  0.59216355  0.69277345  0.86459513    -0.02300
C1935       C  0.89464234  0.59997345  0.86668381    -0.02300
C1936       C  0.79702283  0.89358241  0.86301355    -0.02300
C1937       C  0.89999388  0.60316937  0.62960028    -0.02300
C1938       C  0.59776564  0.69608680  0.62667793    -0.02300
O1939       O  0.77036244  0.66817403  0.82937605    -0.85100
O1940       O  0.84691103  0.74810427  0.80795174    -0.82200
C1941       C  0.88313829  0.75881744  0.83237194     0.98300
O1942       O  0.90336113  0.73821759  0.81661811    -0.82200
O1943       O  0.89977173  0.65375098  0.79048190    -0.84800
C1944       C  0.87466322  0.62284727  0.82569828     1.02900
O1945       O  0.83401078  0.61093243  0.82428076    -0.77600
O1946       O  0.75094649  0.60185796  0.79775822    -0.77800
C1947       C  0.74536092  0.62604063  0.83389889     1.02800
O1948       O  0.75152637  0.65771273  0.70540931    -0.85100
O1949       O  0.83471081  0.74177212  0.68590917    -0.82200
C1950       C  0.87618704  0.76461749  0.67298528     0.98400
O1951       O  0.90125040  0.75151122  0.69348446    -0.82200
O1952       O  0.89441990  0.66807401  0.67002822    -0.84800
C1953       C  0.87817168  0.62600672  0.66729477     1.02800
O1954       O  0.84706910  0.60316419  0.70207842    -0.77600
O1955       O  0.77393810  0.61280487  0.67639788    -0.77800
C1956       C  0.74574815  0.62522671  0.67287383     1.02800
Cr1957     Cr  0.80384353  0.70110651  0.75591248     1.93700
Cr1958     Cr  0.89373282  0.70030864  0.74365350     1.93200
Cr1959     Cr  0.80430969  0.61288482  0.75004704     1.39100
O1960       O  0.83422888  0.67211319  0.74963211    -1.22900
C1961       C  0.54650821  0.67343620  0.64336065     0.00100
C1962       C  0.52436906  0.69465080  0.62055906    -0.11800
C1963       C  0.97815568  0.67589607  0.62308227     0.02300
C1964       C  0.95081349  0.63177871  0.64445466     0.00000
C1965       C  0.97266404  0.61380163  0.67473007    -0.11700
C1966       C  0.51918525  0.63506443  0.67776848     0.02200
H1967       H  0.54371563  0.72569669  0.59756919     0.15200
H1968       H  0.95332892  0.58176439  0.69445279     0.15200
C1969       C  0.53531356  0.61477641  0.71643819     0.36800
C1970       C  0.95981561  0.69762918  0.58988116     0.36700
N1971       N  0.54546266  0.59342240  0.74327700    -0.43500
N1972       N  0.94566031  0.71408265  0.56039865    -0.43500
C1973       C  0.89396726  0.60390096  0.56049759     0.00100
C1974       C  0.93193524  0.61901632  0.52521417    -0.11800
C1975       C  0.93405632  0.63060904  0.96822645     0.02300
C1976       C  0.89512624  0.61197347  0.93362638     0.00000
C1977       C  0.85515074  0.58955518  0.96641012    -0.11700
C1978       C  0.85411292  0.58275239  0.52733452     0.02200
H1979       H  0.96310501  0.62552882  0.54257997     0.15200
H1980       H  0.82439997  0.57148280  0.94329848     0.15200
C1981       C  0.81714557  0.54044550  0.54442147     0.36800
C1982       C  0.97563528  0.67095604  0.95767133     0.36700
N1983       N  0.78798344  0.50429569  0.55162975    -0.43500
N1984       N  0.00877600  0.70465182  0.95522895    -0.43500
C1985       C  0.86701979  0.54594867  0.86447797     0.00100
C1986       C  0.88619618  0.52221467  0.88805758    -0.11800
C1987       C  0.87061165  0.97653620  0.87460746     0.02300
C1988       C  0.82607310  0.94717782  0.85504438     0.00000
C1989       C  0.80223792  0.96976610  0.85038746    -0.11700
C1990       C  0.82128797  0.51665395  0.85027533     0.02200
H1991       H  0.91770070  0.54095342  0.90973099     0.15200
H1992       H  0.76661746  0.95043508  0.85014679     0.15200
C1993       C  0.78789415  0.52886086  0.84662271     0.36800
C1994       C  0.90628193  0.96761200  0.86742192     0.36700
N1995       N  0.75780682  0.53405788  0.84374331    -0.43500
N1996       N  0.93825906  0.96678777  0.85591429    -0.43500
C1997       C  0.58829715  0.69663079  0.93275223     0.00100
C1998       C  0.60814393  0.73802573  0.96331727    -0.11800
C1999       C  0.61390540  0.74081721  0.52472817     0.02300
C2000       C  0.59725224  0.70149827  0.55858351     0.00000
C2001       C  0.57313310  0.66115022  0.52820489    -0.11700
C2002       C  0.57096883  0.65771725  0.96850105     0.02200
H2003       H  0.61979447  0.76815997  0.93922121     0.15200
H2004       H  0.55565124  0.63056661  0.55199712     0.15200
C2005       C  0.55578705  0.61269642  0.94830121     0.36800
C2006       C  0.63436698  0.78381617  0.55220486     0.36700
N2007       N  0.54443818  0.57582478  0.93673771    -0.43500
N2008       N  0.65002448  0.81770945  0.57622142    -0.43500
C2009       C  0.54237376  0.66566169  0.84156746     0.00100
C2010       C  0.51549554  0.61847431  0.84206975    -0.11800
C2011       C  0.96876133  0.59658620  0.83393829     0.02300
C2012       C  0.94543100  0.61987045  0.84627838     0.00000
C2013       C  0.97280196  0.66655381  0.84225486    -0.11700
C2014       C  0.51800720  0.68747453  0.83012546     0.02200
H2015       H  0.53110049  0.59849571  0.84264243     0.15200
H2016       H  0.95935048  0.68832642  0.84775445     0.15200
C2017       C  0.52371206  0.71014141  0.77710451     0.36800
C2018       C  0.94960650  0.55675382  0.79878628     0.36700
N2019       N  0.51985054  0.72383635  0.73383204    -0.43500
N2020       N  0.93512342  0.52584140  0.76852663    -0.43500
C2021       C  0.82101547  0.95602018  0.63633665     0.00100
C2022       C  0.85476396  0.98254099  0.59603346    -0.11800
C2023       C  0.88918083  0.52511369  0.60642595     0.02300
C2024       C  0.88175456  0.55215822  0.64488232     0.00000
C2025       C  0.85149363  0.52786403  0.69007196    -0.11700
C2026       C  0.81939989  0.98167270  0.68440922     0.02200
H2027       H  0.85135914  0.97540660  0.55092253     0.15200
H2028       H  0.85069789  0.54433173  0.72938593     0.15200
C2029       C  0.77972063  0.97018319  0.71639595     0.36800
C2030       C  0.92865266  0.54001955  0.57131268     0.36700
N2031       N  0.74877152  0.96678298  0.74015736    -0.43500
N2032       N  0.95947218  0.54968112  0.54231931    -0.43500
C2033       C  0.78830088  0.89613190  0.55624904     0.00100
C2034       C  0.74999992  0.88531544  0.52404173    -0.11800
C2035       C  0.74898854  0.87953847  0.96248844     0.02300
C2036       C  0.78813758  0.89021703  0.93042018     0.00000
C2037       C  0.82465276  0.89928539  0.96298737    -0.11700
C2038       C  0.82528017  0.90045383  0.52229916     0.02200
H2039       H  0.72104940  0.88120953  0.54665530     0.15200
H2040       H  0.85456747  0.90637443  0.94058159     0.15200
C2041       C  0.86968119  0.91810614  0.54309382     0.36800
C2042       C  0.70717530  0.85850518  0.93427872     0.36700
N2043       N  0.90654453  0.93804656  0.55574592    -0.43500
N2044       N  0.67386320  0.84104578  0.91041505    -0.43500
C2045       C  0.81726031  0.87759871  0.64296416     0.00100
C2046       C  0.85843018  0.89895829  0.66991965    -0.11800
C2047       C  0.88688295  0.88088349  0.66628286     0.02300
C2048       C  0.87042292  0.83463926  0.65073103     0.00000
C2049       C  0.82503007  0.81101318  0.63729950    -0.11700
C2050       C  0.80050621  0.83198027  0.62777657     0.02200
H2051       H  0.87197861  0.93345844  0.68361091     0.15200
H2052       H  0.81066546  0.77723670  0.62326036     0.15200
C2053       C  0.76157387  0.80809762  0.59291078     0.36800
C2054       C  0.93182961  0.91642350  0.66266255     0.36700
N2055       N  0.73247863  0.79251967  0.56103653    -0.43500
N2056       N  0.96382007  0.95076978  0.65731900    -0.43500
C2057       C  0.54688777  0.87349494  0.64075235     0.00100
C2058       C  0.52709779  0.88392408  0.59614902    -0.11800
C2059       C  0.98164438  0.87025306  0.59533008     0.02300
C2060       C  0.95027458  0.84053359  0.63861612     0.00000
C2061       C  0.97146453  0.83512475  0.68613727    -0.11700
C2062       C  0.51644483  0.84675727  0.68543168     0.02200
H2063       H  0.54901995  0.90646665  0.56271909     0.15200
H2064       H  0.95238178  0.82005805  0.72508123     0.15200
C2065       C  0.52526088  0.82313419  0.72761151     0.36800
C2066       C  0.97680709  0.90159596  0.56094827     0.36700
N2067       N  0.52580352  0.79934305  0.76131929    -0.43500
N2068       N  0.98119082  0.93203159  0.53516532    -0.43500
C2069       C  0.61084130  0.88294278  0.57220649     0.00100
C2070       C  0.65139017  0.90923667  0.54183343    -0.11800
C2071       C  0.65400107  0.90762756  0.98113715     0.02300
C2072       C  0.61474713  0.88269394  0.94849518     0.00000
C2073       C  0.58059014  0.84628585  0.98027284    -0.11700
C2074       C  0.57974949  0.84591707  0.54051609     0.02200
H2075       H  0.68172650  0.93119536  0.56310549     0.15200
H2076       H  0.55412202  0.81715622  0.96103772     0.15200
C2077       C  0.54655483  0.80800918  0.57081185     0.36800
C2078       C  0.69662060  0.93600755  0.95500744     0.36700
N2079       N  0.52191800  0.78266335  0.60359835    -0.43500
N2080       N  0.73197917  0.95912749  0.93717863    -0.43500
C2081       C  0.62160391  0.66939566  0.85940309     0.00100
C2082       C  0.65976808  0.68719226  0.89376621    -0.11800
C2083       C  0.68948685  0.67122334  0.89130547     0.02300
C2084       C  0.67759758  0.62924834  0.86332248     0.00000
C2085       C  0.63943765  0.61266935  0.82824321    -0.11700
C2086       C  0.62243117  0.64155006  0.81481487     0.02200
H2087       H  0.66676275  0.71434170  0.92271272     0.15200
H2088       H  0.62900101  0.58275837  0.80301035     0.15200
C2089       C  0.64797491  0.66943404  0.76755647     0.36800
C2090       C  0.72938793  0.69697073  0.92372384     0.36700
N2091       N  0.67460578  0.69542664  0.73662354    -0.43500
N2092       N  0.76007346  0.71651974  0.95244473    -0.43500
C2093       C  0.63141094  0.95037456  0.87971275     0.00100
C2094       C  0.64483860  0.97813209  0.92776754    -0.11800
C2095       C  0.67732666  0.52252832  0.92214372     0.02300
C2096       C  0.67945617  0.54931086  0.87323351     0.00000
C2097       C  0.65727608  0.52206907  0.82442676    -0.11700
C2098       C  0.63579542  0.97373174  0.82758380     0.02200
H2099       H  0.63497313  0.96504753  0.97087376     0.15200
H2100       H  0.65717532  0.53764217  0.78423884     0.15200
C2101       C  0.60854658  0.94610032  0.78319798     0.36800
C2102       C  0.71293691  0.53331076  0.96104273     0.36700
N2103       N  0.58171219  0.91659598  0.75747578    -0.43500
N2104       N  0.74002218  0.53857489  0.99327880    -0.43500
C2105       C  0.88772010  0.79718333  0.56665090     0.00100
C2106       C  0.89100696  0.83126339  0.53243027    -0.11800
C2107       C  0.89936301  0.83400438  0.97392606     0.02300
C2108       C  0.89539626  0.79731026  0.94095427     0.00000
C2109       C  0.88164799  0.75800762  0.97345434    -0.11700
C2110       C  0.87924895  0.75788700  0.53539833     0.02200
H2111       H  0.89305354  0.85998310  0.55301367     0.15200
H2112       H  0.87421469  0.72799571  0.95089876     0.15200
C2113       C  0.86467547  0.71627282  0.56395339     0.36800
C2114       C  0.91425249  0.87770453  0.95218472     0.36700
N2115       N  0.85243968  0.68218655  0.58599195    -0.43500
N2116       N  0.92823404  0.91483957  0.94122033    -0.43500
C2117       C  0.95687123  0.82857104  0.86844612     0.00100
C2118       C  0.98375917  0.87557911  0.87288260    -0.11800
C2119       C  0.53026969  0.89861771  0.88068129     0.02300
C2120       C  0.55487111  0.87550271  0.87759409     0.00000
C2121       C  0.52763915  0.82851868  0.87300708    -0.11700
C2122       C  0.98104345  0.80612833  0.87687236     0.02200
H2123       H  0.96880781  0.89580817  0.87386685     0.15200
H2124       H  0.54268976  0.80773869  0.87273222     0.15200
C2125       C  0.96034164  0.76228988  0.90194605     0.36800
C2126       C  0.54875810  0.94519081  0.89617617     0.36700
N2127       N  0.94271881  0.72766747  0.92395412    -0.43500
N2128       N  0.56138826  0.98217968  0.90861070    -0.43500
C2129       C  0.87548057  0.82505221  0.85424051     0.00100
C2130       C  0.83152425  0.80384504  0.87568008    -0.11800
C2131       C  0.80496035  0.82318943  0.87428803     0.02300
C2132       C  0.82064311  0.86571999  0.84858138     0.00000
C2133       C  0.85910750  0.88111013  0.81375653    -0.11700
C2134       C  0.88682184  0.86188298  0.81759734     0.02200
H2135       H  0.81928195  0.77268286  0.89793570     0.15200
H2136       H  0.86914852  0.90991549  0.78649241     0.15200
C2137       C  0.92711747  0.88157259  0.78576620     0.36800
C2138       C  0.76405849  0.80094231  0.90667867     0.36700
N2139       N  0.96165928  0.89826106  0.76424242    -0.43500
N2140       N  0.73211206  0.78531010  0.93463285    -0.43500
C2141       C  0.62494902  0.94650164  0.64411172     0.00100
C2142       C  0.67141493  0.97099947  0.64506544    -0.11800
C2143       C  0.69655455  0.51810446  0.64432137     0.02300
C2144       C  0.67709063  0.54607768  0.64818123     0.00000
C2145       C  0.63082649  0.52051533  0.65475352    -0.11700
C2146       C  0.60569726  0.97381110  0.65345374     0.02200
H2147       H  0.68935314  0.95310375  0.64696696     0.15200
H2148       H  0.61052874  0.53479170  0.65351458     0.15400
C2149       C  0.56215004  0.95819590  0.67510154     0.36800
C2150       C  0.74242956  0.53360434  0.64320163     0.36700
N2151       N  0.53012867  0.94915896  0.69999769    -0.43500
N2152       N  0.77892934  0.54327940  0.64740911    -0.43500
C2153       C  0.70751271  0.59996863  0.56669170     0.00100
C2154       C  0.74877254  0.62083758  0.53678868    -0.11800
C2155       C  0.75174793  0.62696619  0.97558031     0.02300
C2156       C  0.71253956  0.61233561  0.94318854     0.00000
C2157       C  0.67274142  0.59585117  0.97448130    -0.11700
C2158       C  0.66907188  0.58497506  0.53169087     0.02200
H2159       H  0.77809055  0.63008859  0.56079640     0.15200
H2160       H  0.64202152  0.58391079  0.95095769     0.15200
C2161       C  0.62373863  0.55377077  0.54732855     0.36800
C2162       C  0.79339536  0.64158540  0.94683957     0.36700
N2163       N  0.58655197  0.52690603  0.55174187    -0.43500
N2164       N  0.82633960  0.65226672  0.92254743    -0.43500
C2165       C  0.67751240  0.62688683  0.64233271     0.00100
C2166       C  0.63583426  0.61030551  0.66845511    -0.11800
C2167       C  0.60635475  0.62330144  0.64807788     0.02300
C2168       C  0.62298449  0.66865287  0.63213538     0.00000
C2169       C  0.66772818  0.69028675  0.61397345    -0.11700
C2170       C  0.69410947  0.67001837  0.61654879     0.02200
H2171       H  0.62505861  0.58666724  0.70340757     0.15200
H2172       H  0.68119818  0.72247180  0.59494015     0.15200
C2173       C  0.73768537  0.69411003  0.59116410     0.36800
C2174       C  0.56571511  0.58674390  0.62540182     0.36700
N2175       N  0.77227435  0.71192844  0.56925188    -0.43500
N2176       N  0.53293772  0.55673426  0.60900103    -0.43500
loop_ 
_geom_bond_atom_site_label_1 
_geom_bond_atom_site_label_2 
_geom_bond_distance 
_geom_bond_site_symmetry_2 
_ccdc_geom_bond_type 
O1          Cr19   2.039       .  S
O1            C9   1.271       .  A
O2          Cr19   2.039       .  S
O2            C3   1.271       .  A
C3            O4   1.271       .  A
C3           C30   1.596       .  S
O4          Cr20   2.046       .  S
O5          Cr20   2.051       .  S
O5            C6   1.271       .  A
C6            O7   1.280       .  A
C6           C26   1.602       .  S
O7          Cr21   2.059       .  S
O8          Cr21   2.027       .  S
O8            C9   1.261       .  A
C9           C32   1.587       .  S
O10         Cr19   2.026       .  S
O10          C18   1.281       .  A
O11         Cr19   2.070       .  S
O11          C12   1.275       .  A
C12          O13   1.270       .  A
C12          C34   1.614       .  S
O13         Cr20   2.047       .  S
O14         Cr20   2.033       .  S
O14          C15   1.268       .  A
C15          O16   1.259       .  A
C15          C27   1.559       .  S
O16         Cr21   1.997       .  S
O17         Cr21   2.056       .  S
O17          C18   1.268       .  A
C18          C29   1.594       .  S
Cr19         O22   1.782       .  S
Cr20         O22   1.760       .  S
Cr21         O22   1.786       .  S
C23          C52   1.597       .  S
C23         C240   1.618       .  S
C23         C249   1.569       .  S
C23         C261   1.599       .  S
C24          C37   1.605       .  S
C24         C204   1.594       .  S
C24         C213   1.602       .  S
C24         C225   1.606       .  S
C25          C43   1.571       .  S
C25         C180   1.605       .  S
C25         C192   1.639       .  S
C25         C252   1.569       .  S
C26         C168   1.601       .  S
C26         C189   1.606       .  S
C26         C216   1.614       .  S
C27         C153   1.607       .  S
C27         C165   1.590       .  S
C27         C237   1.606       .  S
C28          C46   1.623       .  S
C28         C144   1.604       .  S
C28         C156   1.626       .  S
C28         C201   1.590       .  S
C29         C117   1.611       .  S
C29         C129   1.604       .  S
C29         C141   1.581       .  S
C30          C93   1.593       .  S
C30         C105   1.601       .  S
C30         C177   1.599       .  S
C31          C40   1.615       .  S
C31          C72   1.600       .  S
C31          C81   1.614       .  S
C31         C108   1.610       .  S
C32          C84   1.613       .  S
C32         C132   1.582       .  S
C32         C228   1.583       .  S
C33          C49   1.593       .  S
C33          C60   1.577       .  S
C33          C69   1.621       .  S
C33         C120   1.586       .  S
C34          C57   1.592       .  S
C34          C96   1.593       .  S
C34         C264   1.593       .  S
O35         Cr53   2.048       .  S
O35          C43   1.270       .  A
O36         Cr53   1.978       .  S
O36          C37   1.266       .  A
C37          O38   1.278       .  A
O38         Cr54   2.054       .  S
O39         Cr54   2.049       .  S
O39          C40   1.275       .  A
C40          O41   1.264       .  A
O41         Cr55   2.042       .  S
O42         Cr55   2.016       .  S
O42          C43   1.259       .  A
O44         Cr53   2.056       .  S
O44          C52   1.277       .  A
O45         Cr53   2.057       .  S
O45          C46   1.284       .  A
C46          O47   1.270       .  A
O47         Cr54   2.029       .  S
O48         Cr54   2.035       .  S
O48          C49   1.268       .  A
C49          O50   1.254       .  A
O50         Cr55   2.006       .  S
O51         Cr55   2.023       .  S
O51          C52   1.261       .  A
Cr53         O56   1.793       .  S
Cr54         O56   1.799       .  S
Cr55         O56   1.769       .  S
C57          C58   1.417       .  A
C57          C62   1.424       .  A
C58        C1147   1.404   1_455  A
C58          H63   1.078       .  S
C59          C60   1.419       .  A
C59        C1146   1.404       .  A
C59          C66   1.442       .  S
C60          C61   1.402       .  A
C61        C1150   1.408       .  A
C61          H64   1.067       .  S
C62        C1149   1.408   1_455  A
C62          C65   1.428       .  S
C65          N67   1.157       .  T
C66          N68   1.156       .  T
C69          C70   1.405       .  A
C69          C74   1.435       .  A
C70         C343   1.374   1_554  A
C70          H75   1.078       .  S
C71          C72   1.431       .  A
C71         C342   1.374       .  A
C71          C78   1.438       .  S
C72          C73   1.419       .  A
C73         C346   1.431       .  A
C73          H76   1.080       .  S
C74         C345   1.431   1_554  A
C74          C77   1.433       .  S
C77          N79   1.159       .  T
C78          N80   1.157       .  T
C81          C82   1.412       .  A
C81          C86   1.436       .  A
C82         C627   1.420   1_545  A
C82          H87   1.084       .  S
C83          C84   1.441       .  A
C83         C626   1.420       .  A
C83          C90   1.433       .  S
C84          C85   1.405       .  A
C85         C630   1.408       .  A
C85          H88   1.075       .  S
C86         C629   1.408   1_545  A
C86          C89   1.430       .  S
C89          N91   1.155       .  T
C90          N92   1.158       .  T
C93          C94   1.423       .  A
C93          C98   1.431       .  A
C94         C367   1.436       .  A
C94          H99   1.068       .  S
C95          C96   1.418       .  A
C95         C366   1.436   1_554  A
C95         C102   1.432       .  S
C96          C97   1.402       .  A
C97         C370   1.388   1_554  A
C97         H100   1.070       .  S
C98         C369   1.388       .  A
C98         C101   1.444       .  S
C101        N103   1.158       .  T
C102        N104   1.154       .  T
C105        C106   1.414       .  A
C105        C110   1.422       .  A
C106       C1195   1.426   1_455  A
C106        H111   1.074       .  S
C107        C108   1.429       .  A
C107       C1194   1.426       .  A
C107        C114   1.440       .  S
C108        C109   1.404       .  A
C109       C1198   1.390       .  A
C109        H112   1.075       .  S
C110       C1197   1.390   1_455  A
C110        C113   1.421       .  S
C113        N115   1.152       .  T
C114        N116   1.158       .  T
C117        C118   1.412       .  A
C117        C122   1.435       .  A
C118        C663   1.374       .  A
C118        H123   1.067       .  S
C119        C120   1.399       .  A
C119        C662   1.374   1_545  A
C119        C126   1.443       .  S
C120        C121   1.416       .  A
C121        C666   1.421   1_545  A
C121        H124   1.077       .  S
C122        C665   1.421       .  A
C122        C125   1.430       .  S
C125        N127   1.157       .  T
C126        N128   1.157       .  T
C129        C130   1.417       .  A
C129        C134   1.443       .  A
C130        C403   1.437   1_554  A
C130        H135   1.075       .  S
C131        C132   1.422       .  A
C131        C402   1.437       .  A
C131        C138   1.428       .  S
C132        C133   1.384       .  A
C133        C406   1.375       .  A
C133        H136   1.071       .  S
C134        C405   1.375   1_554  A
C134        C137   1.440       .  S
C137        N139   1.154       .  T
C138        N140   1.153       .  T
C141        C142   1.397       .  A
C141        C146   1.421       .  A
C142        C143   1.416       .  A
C142        H147   1.084       .  S
C143        C144   1.444       .  A
C143        C150   1.426       .  S
C144        C145   1.408       .  A
C145        C146   1.394       .  A
C145        H148   1.062       .  S
C146        C149   1.440       .  S
C149        N151   1.154       .  T
C150        N152   1.155       .  T
C153        C154   1.399       .  A
C153        C158   1.432       .  A
C154       C1243   1.409   1_455  A
C154        H159   1.089       .  S
C155        C156   1.453       .  A
C155       C1242   1.409       .  A
C155        C162   1.430       .  S
C156        C157   1.402       .  A
C157       C1246   1.411       .  A
C157        H160   1.082       .  S
C158       C1245   1.411   1_455  A
C158        C161   1.413       .  S
C161        N163   1.147       .  T
C162        N164   1.155       .  T
C165        C166   1.417       .  A
C165        C170   1.401       .  A
C166        C439   1.411   1_554  A
C166        H171   1.068       .  S
C167        C168   1.422       .  A
C167        C438   1.411       .  A
C167        C174   1.433       .  S
C168        C169   1.423       .  A
C169        C442   1.396       .  A
C169        H172   1.064       .  S
C170        C441   1.396   1_554  A
C170        C173   1.419       .  S
C173        N175   1.148       .  T
C174        N176   1.153       .  T
C177        C178   1.409       .  A
C177        C182   1.415       .  A
C178        C179   1.400       .  A
C178        H183   1.074       .  S
C179        C180   1.443       .  A
C179        C186   1.438       .  S
C180        C181   1.421       .  A
C181        C182   1.434       .  A
C181        H184   1.077       .  S
C182        C185   1.431       .  S
C185        N187   1.155       .  T
C186        N188   1.154       .  T
C189        C190   1.387       .  A
C189        C194   1.423       .  A
C190        C735   1.380       .  A
C190        H195   1.078       .  S
C191        C192   1.448       .  A
C191        C734   1.380   1_545  A
C191        C198   1.435       .  S
C192        C193   1.428       .  A
C193        C738   1.448   1_545  A
C193        H196   1.081       .  S
C194        C737   1.448       .  A
C194        C197   1.404       .  S
C197        N199   1.147       .  T
C198        N200   1.154       .  T
C201        C202   1.382       .  A
C201        C206   1.428       .  A
C202        C475   1.377   1_554  A
C202        H207   1.067       .  S
C203        C204   1.421       .  A
C203        C474   1.377       .  A
C203        C210   1.422       .  S
C204        C205   1.413       .  A
C205        C478   1.437       .  A
C205        H208   1.067       .  S
C206        C477   1.437   1_554  A
C206        C209   1.427       .  S
C209        N211   1.153       .  T
C210        N212   1.150       .  T
C213        C214   1.412       .  A
C213        C218   1.422       .  A
C214       C1303   1.416       .  A
C214        H219   1.063       .  S
C215        C216   1.439       .  A
C215       C1302   1.416   1_455  A
C215        C222   1.444       .  S
C216        C217   1.413       .  A
C217       C1306   1.407   1_455  A
C217        H220   1.083       .  S
C218       C1305   1.407       .  A
C218        C221   1.434       .  S
C221        N223   1.154       .  T
C222        N224   1.158       .  T
C225        C226   1.410       .  A
C225        C230   1.415       .  A
C226        C227   1.391       .  A
C226        H231   1.072       .  S
C227        C228   1.418       .  A
C227        C234   1.437       .  S
C228        C229   1.411       .  A
C229        C230   1.428       .  A
C229        H232   1.080       .  S
C230        C233   1.413       .  S
C233        N235   1.149       .  T
C234        N236   1.154       .  T
C237        C238   1.402       .  A
C237        C242   1.422       .  A
C238        C783   1.408       .  A
C238        H243   1.081       .  S
C239        C240   1.437       .  A
C239        C782   1.408   1_545  A
C239        C246   1.409       .  S
C240        C241   1.403       .  A
C241        C786   1.396   1_545  A
C241        H244   1.049       .  S
C242        C785   1.396       .  A
C242        C245   1.417       .  S
C245        N247   1.145       .  T
C246        N248   1.148       .  T
C249        C250   1.416       .  A
C249        C254   1.433       .  A
C250        C523   1.431   1_554  A
C250        H255   1.070       .  S
C251        C252   1.422       .  A
C251        C522   1.431       .  A
C251        C258   1.431       .  S
C252        C253   1.400       .  A
C253        C526   1.368       .  A
C253        H256   1.089       .  S
C254        C525   1.368   1_554  A
C254        C257   1.438       .  S
C257        N259   1.158       .  T
C258        N260   1.154       .  T
C261        C262   1.396       .  A
C261        C266   1.432       .  A
C262        C263   1.404       .  A
C262        H267   1.077       .  S
C263        C264   1.421       .  A
C263        C270   1.446       .  S
C264        C265   1.409       .  A
C265        C266   1.413       .  A
C265        H268   1.063       .  S
C266        C269   1.434       .  S
C269        N271   1.154       .  T
C270        N272   1.157       .  T
O273       Cr291   2.039       .  S
O273        C281   1.271       .  A
O274       Cr291   2.039       .  S
O274        C275   1.271       .  A
C275        O276   1.271       .  A
C275        C302   1.596       .  S
O276       Cr292   2.046       .  S
O277       Cr292   2.051       .  S
O277        C278   1.271       .  A
C278        O279   1.280       .  A
C278        C298   1.602       .  S
O279       Cr293   2.059       .  S
O280       Cr293   2.027       .  S
O280        C281   1.261       .  A
C281        C304   1.587       .  S
O282       Cr291   2.026       .  S
O282        C290   1.281       .  A
O283       Cr291   2.070       .  S
O283        C284   1.275       .  A
C284        O285   1.270       .  A
C284        C306   1.614       .  S
O285       Cr292   2.047       .  S
O286       Cr292   2.033       .  S
O286        C287   1.268       .  A
C287        O288   1.259       .  A
C287        C299   1.559       .  S
O288       Cr293   1.997       .  S
O289       Cr293   2.056       .  S
O289        C290   1.268       .  A
C290        C301   1.594       .  S
Cr291       O294   1.782       .  S
Cr292       O294   1.760       .  S
Cr293       O294   1.786       .  S
C295        C324   1.597       .  S
C295        C512   1.618       .  S
C295        C521   1.569       .  S
C295        C533   1.599       .  S
C296        C309   1.605       .  S
C296        C476   1.594       .  S
C296        C485   1.602       .  S
C296        C497   1.606       .  S
C297        C315   1.571       .  S
C297        C452   1.605       .  S
C297        C464   1.639       .  S
C297        C524   1.569       .  S
C298        C440   1.601       .  S
C298        C461   1.606       .  S
C298        C488   1.614       .  S
C299        C425   1.607       .  S
C299        C437   1.590       .  S
C299        C509   1.606       .  S
C300        C318   1.623       .  S
C300        C416   1.604       .  S
C300        C428   1.626       .  S
C300        C473   1.590       .  S
C301        C389   1.611       .  S
C301        C401   1.604       .  S
C301        C413   1.581       .  S
C302        C365   1.593       .  S
C302        C377   1.601       .  S
C302        C449   1.599       .  S
C303        C312   1.615       .  S
C303        C344   1.600       .  S
C303        C353   1.614       .  S
C303        C380   1.610       .  S
C304        C356   1.613       .  S
C304        C404   1.582       .  S
C304        C500   1.583       .  S
C305        C321   1.593       .  S
C305        C332   1.577       .  S
C305        C341   1.621       .  S
C305        C392   1.586       .  S
C306        C329   1.592       .  S
C306        C368   1.593       .  S
C306        C536   1.593       .  S
O307       Cr325   2.048       .  S
O307        C315   1.270       .  A
O308       Cr325   1.978       .  S
O308        C309   1.266       .  A
C309        O310   1.278       .  A
O310       Cr326   2.054       .  S
O311       Cr326   2.049       .  S
O311        C312   1.275       .  A
C312        O313   1.264       .  A
O313       Cr327   2.042       .  S
O314       Cr327   2.016       .  S
O314        C315   1.259       .  A
O316       Cr325   2.056       .  S
O316        C324   1.277       .  A
O317       Cr325   2.057       .  S
O317        C318   1.284       .  A
C318        O319   1.270       .  A
O319       Cr326   2.029       .  S
O320       Cr326   2.035       .  S
O320        C321   1.268       .  A
C321        O322   1.254       .  A
O322       Cr327   2.006       .  S
O323       Cr327   2.023       .  S
O323        C324   1.261       .  A
Cr325       O328   1.793       .  S
Cr326       O328   1.799       .  S
Cr327       O328   1.769       .  S
C329        C330   1.417       .  A
C329        C334   1.424       .  A
C330       C1419   1.404   1_455  A
C330        H335   1.078       .  S
C331       C1418   1.404       .  A
C331        C332   1.419       .  A
C331        C338   1.442       .  S
C332        C333   1.402       .  A
C333       C1422   1.408       .  A
C333        H336   1.067       .  S
C334       C1421   1.408   1_455  A
C334        C337   1.428       .  S
C337        N339   1.157       .  T
C338        N340   1.156       .  T
C341        C342   1.405       .  A
C341        C346   1.435       .  A
C342        H347   1.078       .  S
C343        C344   1.431       .  A
C343        C350   1.438       .  S
C344        C345   1.419       .  A
C345        H348   1.080       .  S
C346        C349   1.433       .  S
C349        N351   1.159       .  T
C350        N352   1.157       .  T
C353        C354   1.412       .  A
C353        C358   1.436       .  A
C354        C899   1.420   1_545  A
C354        H359   1.084       .  S
C355        C898   1.420       .  A
C355        C356   1.441       .  A
C355        C362   1.433       .  S
C356        C357   1.405       .  A
C357        C902   1.408       .  A
C357        H360   1.075       .  S
C358        C901   1.408   1_545  A
C358        C361   1.430       .  S
C361        N363   1.155       .  T
C362        N364   1.158       .  T
C365        C366   1.423       .  A
C365        C370   1.431       .  A
C366        H371   1.068       .  S
C367        C368   1.418       .  A
C367        C374   1.432       .  S
C368        C369   1.402       .  A
C369        H372   1.070       .  S
C370        C373   1.444       .  S
C373        N375   1.158       .  T
C374        N376   1.154       .  T
C377        C378   1.414       .  A
C377        C382   1.422       .  A
C378       C1467   1.426   1_455  A
C378        H383   1.074       .  S
C379       C1466   1.426       .  A
C379        C380   1.429       .  A
C379        C386   1.440       .  S
C380        C381   1.404       .  A
C381       C1470   1.390       .  A
C381        H384   1.075       .  S
C382       C1469   1.390   1_455  A
C382        C385   1.421       .  S
C385        N387   1.152       .  T
C386        N388   1.158       .  T
C389        C390   1.412       .  A
C389        C394   1.435       .  A
C390        C935   1.374       .  A
C390        H395   1.067       .  S
C391        C934   1.374   1_545  A
C391        C392   1.399       .  A
C391        C398   1.443       .  S
C392        C393   1.416       .  A
C393        C938   1.421   1_545  A
C393        H396   1.077       .  S
C394        C937   1.421       .  A
C394        C397   1.430       .  S
C397        N399   1.157       .  T
C398        N400   1.157       .  T
C401        C402   1.417       .  A
C401        C406   1.443       .  A
C402        H407   1.075       .  S
C403        C404   1.422       .  A
C403        C410   1.428       .  S
C404        C405   1.384       .  A
C405        H408   1.071       .  S
C406        C409   1.440       .  S
C409        N411   1.154       .  T
C410        N412   1.153       .  T
C413        C414   1.397       .  A
C413        C418   1.421       .  A
C414        C415   1.416       .  A
C414        H419   1.084       .  S
C415        C416   1.444       .  A
C415        C422   1.426       .  S
C416        C417   1.408       .  A
C417        C418   1.394       .  A
C417        H420   1.062       .  S
C418        C421   1.440       .  S
C421        N423   1.154       .  T
C422        N424   1.155       .  T
C425        C426   1.399       .  A
C425        C430   1.432       .  A
C426       C1515   1.409   1_455  A
C426        H431   1.089       .  S
C427       C1514   1.409       .  A
C427        C428   1.453       .  A
C427        C434   1.430       .  S
C428        C429   1.402       .  A
C429       C1518   1.411       .  A
C429        H432   1.082       .  S
C430       C1517   1.411   1_455  A
C430        C433   1.413       .  S
C433        N435   1.147       .  T
C434        N436   1.155       .  T
C437        C438   1.417       .  A
C437        C442   1.401       .  A
C438        H443   1.068       .  S
C439        C440   1.422       .  A
C439        C446   1.433       .  S
C440        C441   1.423       .  A
C441        H444   1.064       .  S
C442        C445   1.419       .  S
C445        N447   1.148       .  T
C446        N448   1.153       .  T
C449        C450   1.409       .  A
C449        C454   1.415       .  A
C450        C451   1.400       .  A
C450        H455   1.074       .  S
C451        C452   1.443       .  A
C451        C458   1.438       .  S
C452        C453   1.421       .  A
C453        C454   1.434       .  A
C453        H456   1.077       .  S
C454        C457   1.431       .  S
C457        N459   1.155       .  T
C458        N460   1.154       .  T
C461        C462   1.387       .  A
C461        C466   1.423       .  A
C462       C1007   1.380       .  A
C462        H467   1.078       .  S
C463       C1006   1.380   1_545  A
C463        C464   1.448       .  A
C463        C470   1.435       .  S
C464        C465   1.428       .  A
C465       C1010   1.448   1_545  A
C465        H468   1.081       .  S
C466       C1009   1.448       .  A
C466        C469   1.404       .  S
C469        N471   1.147       .  T
C470        N472   1.154       .  T
C473        C474   1.382       .  A
C473        C478   1.428       .  A
C474        H479   1.067       .  S
C475        C476   1.421       .  A
C475        C482   1.422       .  S
C476        C477   1.413       .  A
C477        H480   1.067       .  S
C478        C481   1.427       .  S
C481        N483   1.153       .  T
C482        N484   1.150       .  T
C485        C486   1.412       .  A
C485        C490   1.422       .  A
C486       C1575   1.416       .  A
C486        H491   1.063       .  S
C487       C1574   1.416   1_455  A
C487        C488   1.439       .  A
C487        C494   1.444       .  S
C488        C489   1.413       .  A
C489       C1578   1.407   1_455  A
C489        H492   1.083       .  S
C490       C1577   1.407       .  A
C490        C493   1.434       .  S
C493        N495   1.154       .  T
C494        N496   1.158       .  T
C497        C498   1.410       .  A
C497        C502   1.415       .  A
C498        C499   1.391       .  A
C498        H503   1.072       .  S
C499        C500   1.418       .  A
C499        C506   1.437       .  S
C500        C501   1.411       .  A
C501        C502   1.428       .  A
C501        H504   1.080       .  S
C502        C505   1.413       .  S
C505        N507   1.149       .  T
C506        N508   1.154       .  T
C509        C510   1.402       .  A
C509        C514   1.422       .  A
C510       C1055   1.408       .  A
C510        H515   1.081       .  S
C511       C1054   1.408   1_545  A
C511        C512   1.437       .  A
C511        C518   1.409       .  S
C512        C513   1.403       .  A
C513       C1058   1.396   1_545  A
C513        H516   1.049       .  S
C514       C1057   1.396       .  A
C514        C517   1.417       .  S
C517        N519   1.145       .  T
C518        N520   1.148       .  T
C521        C522   1.416       .  A
C521        C526   1.433       .  A
C522        H527   1.070       .  S
C523        C524   1.422       .  A
C523        C530   1.431       .  S
C524        C525   1.400       .  A
C525        H528   1.089       .  S
C526        C529   1.438       .  S
C529        N531   1.158       .  T
C530        N532   1.154       .  T
C533        C534   1.396       .  A
C533        C538   1.432       .  A
C534        C535   1.404       .  A
C534        H539   1.077       .  S
C535        C536   1.421       .  A
C535        C542   1.446       .  S
C536        C537   1.409       .  A
C537        C538   1.413       .  A
C537        H540   1.063       .  S
C538        C541   1.434       .  S
C541        N543   1.154       .  T
C542        N544   1.157       .  T
O545       Cr563   2.039       .  S
O545        C553   1.271       .  A
O546       Cr563   2.039       .  S
O546        C547   1.271       .  A
C547        O548   1.271       .  A
C547        C574   1.596       .  S
O548       Cr564   2.046       .  S
O549       Cr564   2.051       .  S
O549        C550   1.271       .  A
C550        O551   1.280       .  A
C550        C570   1.602       .  S
O551       Cr565   2.059       .  S
O552       Cr565   2.027       .  S
O552        C553   1.261       .  A
C553        C576   1.587       .  S
O554       Cr563   2.026       .  S
O554        C562   1.281       .  A
O555       Cr563   2.070       .  S
O555        C556   1.275       .  A
C556        O557   1.270       .  A
C556        C578   1.614       .  S
O557       Cr564   2.047       .  S
O558       Cr564   2.033       .  S
O558        C559   1.268       .  A
C559        O560   1.259       .  A
C559        C571   1.559       .  S
O560       Cr565   1.997       .  S
O561       Cr565   2.056       .  S
O561        C562   1.268       .  A
C562        C573   1.594       .  S
Cr563       O566   1.782       .  S
Cr564       O566   1.760       .  S
Cr565       O566   1.786       .  S
C567        C596   1.597       .  S
C567        C784   1.618       .  S
C567        C793   1.569       .  S
C567        C805   1.599       .  S
C568        C581   1.605       .  S
C568        C748   1.594       .  S
C568        C757   1.602       .  S
C568        C769   1.606       .  S
C569        C587   1.571       .  S
C569        C724   1.605       .  S
C569        C736   1.639       .  S
C569        C796   1.569       .  S
C570        C712   1.601       .  S
C570        C733   1.606       .  S
C570        C760   1.614       .  S
C571        C697   1.607       .  S
C571        C709   1.590       .  S
C571        C781   1.606       .  S
C572        C590   1.623       .  S
C572        C688   1.604       .  S
C572        C700   1.626       .  S
C572        C745   1.590       .  S
C573        C661   1.611       .  S
C573        C673   1.604       .  S
C573        C685   1.581       .  S
C574        C637   1.593       .  S
C574        C649   1.601       .  S
C574        C721   1.599       .  S
C575        C584   1.615       .  S
C575        C616   1.600       .  S
C575        C625   1.614       .  S
C575        C652   1.610       .  S
C576        C628   1.613       .  S
C576        C676   1.582       .  S
C576        C772   1.583       .  S
C577        C593   1.593       .  S
C577        C604   1.577       .  S
C577        C613   1.621       .  S
C577        C664   1.586       .  S
C578        C601   1.592       .  S
C578        C640   1.593       .  S
C578        C808   1.593       .  S
O579       Cr597   2.048       .  S
O579        C587   1.270       .  A
O580       Cr597   1.978       .  S
O580        C581   1.266       .  A
C581        O582   1.278       .  A
O582       Cr598   2.054       .  S
O583       Cr598   2.049       .  S
O583        C584   1.275       .  A
C584        O585   1.264       .  A
O585       Cr599   2.042       .  S
O586       Cr599   2.016       .  S
O586        C587   1.259       .  A
O588       Cr597   2.056       .  S
O588        C596   1.277       .  A
O589       Cr597   2.057       .  S
O589        C590   1.284       .  A
C590        O591   1.270       .  A
O591       Cr598   2.029       .  S
O592       Cr598   2.035       .  S
O592        C593   1.268       .  A
C593        O594   1.254       .  A
O594       Cr599   2.006       .  S
O595       Cr599   2.023       .  S
O595        C596   1.261       .  A
Cr597       O600   1.793       .  S
Cr598       O600   1.799       .  S
Cr599       O600   1.769       .  S
C601        C602   1.417       .  A
C601        C606   1.424       .  A
C602       C1691   1.404   1_455  A
C602        H607   1.078       .  S
C603       C1690   1.404       .  A
C603        C604   1.419       .  A
C603        C610   1.442       .  S
C604        C605   1.402       .  A
C605       C1694   1.408       .  A
C605        H608   1.067       .  S
C606       C1693   1.408   1_455  A
C606        C609   1.428       .  S
C609        N611   1.157       .  T
C610        N612   1.156       .  T
C613        C614   1.405       .  A
C613        C618   1.435       .  A
C614        C887   1.374   1_554  A
C614        H619   1.078       .  S
C615        C886   1.374       .  A
C615        C616   1.431       .  A
C615        C622   1.438       .  S
C616        C617   1.419       .  A
C617        C890   1.431       .  A
C617        H620   1.080       .  S
C618        C889   1.431   1_554  A
C618        C621   1.433       .  S
C621        N623   1.159       .  T
C622        N624   1.157       .  T
C625        C626   1.412       .  A
C625        C630   1.436       .  A
C626        H631   1.084       .  S
C627        C628   1.441       .  A
C627        C634   1.433       .  S
C628        C629   1.405       .  A
C629        H632   1.075       .  S
C630        C633   1.430       .  S
C633        N635   1.155       .  T
C634        N636   1.158       .  T
C637        C638   1.423       .  A
C637        C642   1.431       .  A
C638        C911   1.436       .  A
C638        H643   1.068       .  S
C639        C910   1.436   1_554  A
C639        C640   1.418       .  A
C639        C646   1.432       .  S
C640        C641   1.402       .  A
C641        C914   1.388   1_554  A
C641        H644   1.070       .  S
C642        C913   1.388       .  A
C642        C645   1.444       .  S
C645        N647   1.158       .  T
C646        N648   1.154       .  T
C649        C650   1.414       .  A
C649        C654   1.422       .  A
C650       C1739   1.426   1_455  A
C650        H655   1.074       .  S
C651       C1738   1.426       .  A
C651        C652   1.429       .  A
C651        C658   1.440       .  S
C652        C653   1.404       .  A
C653       C1742   1.390       .  A
C653        H656   1.075       .  S
C654       C1741   1.390   1_455  A
C654        C657   1.421       .  S
C657        N659   1.152       .  T
C658        N660   1.158       .  T
C661        C662   1.412       .  A
C661        C666   1.435       .  A
C662        H667   1.067       .  S
C663        C664   1.399       .  A
C663        C670   1.443       .  S
C664        C665   1.416       .  A
C665        H668   1.077       .  S
C666        C669   1.430       .  S
C669        N671   1.157       .  T
C670        N672   1.157       .  T
C673        C674   1.417       .  A
C673        C678   1.443       .  A
C674        C947   1.437   1_554  A
C674        H679   1.075       .  S
C675        C946   1.437       .  A
C675        C676   1.422       .  A
C675        C682   1.428       .  S
C676        C677   1.384       .  A
C677        C950   1.375       .  A
C677        H680   1.071       .  S
C678        C949   1.375   1_554  A
C678        C681   1.440       .  S
C681        N683   1.154       .  T
C682        N684   1.153       .  T
C685        C686   1.397       .  A
C685        C690   1.421       .  A
C686        C687   1.416       .  A
C686        H691   1.084       .  S
C687        C688   1.444       .  A
C687        C694   1.426       .  S
C688        C689   1.408       .  A
C689        C690   1.394       .  A
C689        H692   1.062       .  S
C690        C693   1.440       .  S
C693        N695   1.154       .  T
C694        N696   1.155       .  T
C697        C698   1.399       .  A
C697        C702   1.432       .  A
C698       C1787   1.409   1_455  A
C698        H703   1.089       .  S
C699       C1786   1.409       .  A
C699        C700   1.453       .  A
C699        C706   1.430       .  S
C700        C701   1.402       .  A
C701       C1790   1.411       .  A
C701        H704   1.082       .  S
C702       C1789   1.411   1_455  A
C702        C705   1.413       .  S
C705        N707   1.147       .  T
C706        N708   1.155       .  T
C709        C710   1.417       .  A
C709        C714   1.401       .  A
C710        C983   1.411   1_554  A
C710        H715   1.068       .  S
C711        C982   1.411       .  A
C711        C712   1.422       .  A
C711        C718   1.433       .  S
C712        C713   1.423       .  A
C713        C986   1.396       .  A
C713        H716   1.064       .  S
C714        C985   1.396   1_554  A
C714        C717   1.419       .  S
C717        N719   1.148       .  T
C718        N720   1.153       .  T
C721        C722   1.409       .  A
C721        C726   1.415       .  A
C722        C723   1.400       .  A
C722        H727   1.074       .  S
C723        C724   1.443       .  A
C723        C730   1.438       .  S
C724        C725   1.421       .  A
C725        C726   1.434       .  A
C725        H728   1.077       .  S
C726        C729   1.431       .  S
C729        N731   1.155       .  T
C730        N732   1.154       .  T
C733        C734   1.387       .  A
C733        C738   1.423       .  A
C734        H739   1.078       .  S
C735        C736   1.448       .  A
C735        C742   1.435       .  S
C736        C737   1.428       .  A
C737        H740   1.081       .  S
C738        C741   1.404       .  S
C741        N743   1.147       .  T
C742        N744   1.154       .  T
C745        C746   1.382       .  A
C745        C750   1.428       .  A
C746       C1019   1.377   1_554  A
C746        H751   1.067       .  S
C747       C1018   1.377       .  A
C747        C748   1.421       .  A
C747        C754   1.422       .  S
C748        C749   1.413       .  A
C749       C1022   1.437       .  A
C749        H752   1.067       .  S
C750       C1021   1.437   1_554  A
C750        C753   1.427       .  S
C753        N755   1.153       .  T
C754        N756   1.150       .  T
C757        C758   1.412       .  A
C757        C762   1.422       .  A
C758       C1847   1.416       .  A
C758        H763   1.063       .  S
C759       C1846   1.416   1_455  A
C759        C760   1.439       .  A
C759        C766   1.444       .  S
C760        C761   1.413       .  A
C761       C1850   1.407   1_455  A
C761        H764   1.083       .  S
C762       C1849   1.407       .  A
C762        C765   1.434       .  S
C765        N767   1.154       .  T
C766        N768   1.158       .  T
C769        C770   1.410       .  A
C769        C774   1.415       .  A
C770        C771   1.391       .  A
C770        H775   1.072       .  S
C771        C772   1.418       .  A
C771        C778   1.437       .  S
C772        C773   1.411       .  A
C773        C774   1.428       .  A
C773        H776   1.080       .  S
C774        C777   1.413       .  S
C777        N779   1.149       .  T
C778        N780   1.154       .  T
C781        C782   1.402       .  A
C781        C786   1.422       .  A
C782        H787   1.081       .  S
C783        C784   1.437       .  A
C783        C790   1.409       .  S
C784        C785   1.403       .  A
C785        H788   1.049       .  S
C786        C789   1.417       .  S
C789        N791   1.145       .  T
C790        N792   1.148       .  T
C793        C794   1.416       .  A
C793        C798   1.433       .  A
C794       C1067   1.431   1_554  A
C794        H799   1.070       .  S
C795       C1066   1.431       .  A
C795        C796   1.422       .  A
C795        C802   1.431       .  S
C796        C797   1.400       .  A
C797       C1070   1.368       .  A
C797        H800   1.089       .  S
C798       C1069   1.368   1_554  A
C798        C801   1.438       .  S
C801        N803   1.158       .  T
C802        N804   1.154       .  T
C805        C806   1.396       .  A
C805        C810   1.432       .  A
C806        C807   1.404       .  A
C806        H811   1.077       .  S
C807        C808   1.421       .  A
C807        C814   1.446       .  S
C808        C809   1.409       .  A
C809        C810   1.413       .  A
C809        H812   1.063       .  S
C810        C813   1.434       .  S
C813        N815   1.154       .  T
C814        N816   1.157       .  T
O817       Cr835   2.039       .  S
O817        C825   1.271       .  A
O818       Cr835   2.039       .  S
O818        C819   1.271       .  A
C819        O820   1.271       .  A
C819        C846   1.596       .  S
O820       Cr836   2.046       .  S
O821       Cr836   2.051       .  S
O821        C822   1.271       .  A
C822        O823   1.280       .  A
C822        C842   1.602       .  S
O823       Cr837   2.059       .  S
O824       Cr837   2.027       .  S
O824        C825   1.261       .  A
C825        C848   1.587       .  S
O826       Cr835   2.026       .  S
O826        C834   1.281       .  A
O827       Cr835   2.070       .  S
O827        C828   1.275       .  A
C828        O829   1.270       .  A
C828        C850   1.614       .  S
O829       Cr836   2.047       .  S
O830       Cr836   2.033       .  S
O830        C831   1.268       .  A
C831        O832   1.259       .  A
C831        C843   1.559       .  S
O832       Cr837   1.997       .  S
O833       Cr837   2.056       .  S
O833        C834   1.268       .  A
C834        C845   1.594       .  S
Cr835       O838   1.782       .  S
Cr836       O838   1.760       .  S
Cr837       O838   1.786       .  S
C839        C868   1.597       .  S
C839       C1056   1.618       .  S
C839       C1065   1.569       .  S
C839       C1077   1.599       .  S
C840        C853   1.605       .  S
C840       C1020   1.594       .  S
C840       C1029   1.602       .  S
C840       C1041   1.606       .  S
C841        C859   1.571       .  S
C841        C996   1.605       .  S
C841       C1008   1.639       .  S
C841       C1068   1.569       .  S
C842        C984   1.601       .  S
C842       C1005   1.606       .  S
C842       C1032   1.614       .  S
C843        C969   1.607       .  S
C843        C981   1.590       .  S
C843       C1053   1.606       .  S
C844        C862   1.623       .  S
C844        C960   1.604       .  S
C844        C972   1.626       .  S
C844       C1017   1.590       .  S
C845        C933   1.611       .  S
C845        C945   1.604       .  S
C845        C957   1.581       .  S
C846        C909   1.593       .  S
C846        C921   1.601       .  S
C846        C993   1.599       .  S
C847        C856   1.615       .  S
C847        C888   1.600       .  S
C847        C897   1.614       .  S
C847        C924   1.610       .  S
C848        C900   1.613       .  S
C848        C948   1.582       .  S
C848       C1044   1.583       .  S
C849        C865   1.593       .  S
C849        C876   1.577       .  S
C849        C885   1.621       .  S
C849        C936   1.586       .  S
C850        C873   1.592       .  S
C850        C912   1.593       .  S
C850       C1080   1.593       .  S
O851       Cr869   2.048       .  S
O851        C859   1.270       .  A
O852       Cr869   1.978       .  S
O852        C853   1.266       .  A
C853        O854   1.278       .  A
O854       Cr870   2.054       .  S
O855       Cr870   2.049       .  S
O855        C856   1.275       .  A
C856        O857   1.264       .  A
O857       Cr871   2.042       .  S
O858       Cr871   2.016       .  S
O858        C859   1.259       .  A
O860       Cr869   2.056       .  S
O860        C868   1.277       .  A
O861       Cr869   2.057       .  S
O861        C862   1.284       .  A
C862        O863   1.270       .  A
O863       Cr870   2.029       .  S
O864       Cr870   2.035       .  S
O864        C865   1.268       .  A
C865        O866   1.254       .  A
O866       Cr871   2.006       .  S
O867       Cr871   2.023       .  S
O867        C868   1.261       .  A
Cr869       O872   1.793       .  S
Cr870       O872   1.799       .  S
Cr871       O872   1.769       .  S
C873        C874   1.417       .  A
C873        C878   1.424       .  A
C874       C1963   1.404   1_455  A
C874        H879   1.078       .  S
C875       C1962   1.404       .  A
C875        C876   1.419       .  A
C875        C882   1.442       .  S
C876        C877   1.402       .  A
C877       C1966   1.408       .  A
C877        H880   1.067       .  S
C878       C1965   1.408   1_455  A
C878        C881   1.428       .  S
C881        N883   1.157       .  T
C882        N884   1.156       .  T
C885        C886   1.405       .  A
C885        C890   1.435       .  A
C886        H891   1.078       .  S
C887        C888   1.431       .  A
C887        C894   1.438       .  S
C888        C889   1.419       .  A
C889        H892   1.080       .  S
C890        C893   1.433       .  S
C893        N895   1.159       .  T
C894        N896   1.157       .  T
C897        C898   1.412       .  A
C897        C902   1.436       .  A
C898        H903   1.084       .  S
C899        C900   1.441       .  A
C899        C906   1.433       .  S
C900        C901   1.405       .  A
C901        H904   1.075       .  S
C902        C905   1.430       .  S
C905        N907   1.155       .  T
C906        N908   1.158       .  T
C909        C910   1.423       .  A
C909        C914   1.431       .  A
C910        H915   1.068       .  S
C911        C912   1.418       .  A
C911        C918   1.432       .  S
C912        C913   1.402       .  A
C913        H916   1.070       .  S
C914        C917   1.444       .  S
C917        N919   1.158       .  T
C918        N920   1.154       .  T
C921        C922   1.414       .  A
C921        C926   1.422       .  A
C922       C2011   1.426   1_455  A
C922        H927   1.074       .  S
C923       C2010   1.426       .  A
C923        C924   1.429       .  A
C923        C930   1.440       .  S
C924        C925   1.404       .  A
C925       C2014   1.390       .  A
C925        H928   1.075       .  S
C926       C2013   1.390   1_455  A
C926        C929   1.421       .  S
C929        N931   1.152       .  T
C930        N932   1.158       .  T
C933        C934   1.412       .  A
C933        C938   1.435       .  A
C934        H939   1.067       .  S
C935        C936   1.399       .  A
C935        C942   1.443       .  S
C936        C937   1.416       .  A
C937        H940   1.077       .  S
C938        C941   1.430       .  S
C941        N943   1.157       .  T
C942        N944   1.157       .  T
C945        C946   1.417       .  A
C945        C950   1.443       .  A
C946        H951   1.075       .  S
C947        C948   1.422       .  A
C947        C954   1.428       .  S
C948        C949   1.384       .  A
C949        H952   1.071       .  S
C950        C953   1.440       .  S
C953        N955   1.154       .  T
C954        N956   1.153       .  T
C957        C958   1.397       .  A
C957        C962   1.421       .  A
C958        C959   1.416       .  A
C958        H963   1.084       .  S
C959        C960   1.444       .  A
C959        C966   1.426       .  S
C960        C961   1.408       .  A
C961        C962   1.394       .  A
C961        H964   1.062       .  S
C962        C965   1.440       .  S
C965        N967   1.154       .  T
C966        N968   1.155       .  T
C969        C970   1.399       .  A
C969        C974   1.432       .  A
C970       C2059   1.409   1_455  A
C970        H975   1.089       .  S
C971       C2058   1.409       .  A
C971        C972   1.453       .  A
C971        C978   1.430       .  S
C972        C973   1.402       .  A
C973       C2062   1.411       .  A
C973        H976   1.082       .  S
C974       C2061   1.411   1_455  A
C974        C977   1.413       .  S
C977        N979   1.147       .  T
C978        N980   1.155       .  T
C981        C982   1.417       .  A
C981        C986   1.401       .  A
C982        H987   1.068       .  S
C983        C984   1.422       .  A
C983        C990   1.433       .  S
C984        C985   1.423       .  A
C985        H988   1.064       .  S
C986        C989   1.419       .  S
C989        N991   1.148       .  T
C990        N992   1.153       .  T
C993        C994   1.409       .  A
C993        C998   1.415       .  A
C994        C995   1.400       .  A
C994        H999   1.074       .  S
C995        C996   1.443       .  A
C995       C1002   1.438       .  S
C996        C997   1.421       .  A
C997        C998   1.434       .  A
C997       H1000   1.077       .  S
C998       C1001   1.431       .  S
C1001      N1003   1.155       .  T
C1002      N1004   1.154       .  T
C1005      C1006   1.387       .  A
C1005      C1010   1.423       .  A
C1006      H1011   1.078       .  S
C1007      C1008   1.448       .  A
C1007      C1014   1.435       .  S
C1008      C1009   1.428       .  A
C1009      H1012   1.081       .  S
C1010      C1013   1.404       .  S
C1013      N1015   1.147       .  T
C1014      N1016   1.154       .  T
C1017      C1018   1.382       .  A
C1017      C1022   1.428       .  A
C1018      H1023   1.067       .  S
C1019      C1020   1.421       .  A
C1019      C1026   1.422       .  S
C1020      C1021   1.413       .  A
C1021      H1024   1.067       .  S
C1022      C1025   1.427       .  S
C1025      N1027   1.153       .  T
C1026      N1028   1.150       .  T
C1029      C1030   1.412       .  A
C1029      C1034   1.422       .  A
C1030      C2119   1.416       .  A
C1030      H1035   1.063       .  S
C1031      C2118   1.416   1_455  A
C1031      C1032   1.439       .  A
C1031      C1038   1.444       .  S
C1032      C1033   1.413       .  A
C1033      C2122   1.407   1_455  A
C1033      H1036   1.083       .  S
C1034      C2121   1.407       .  A
C1034      C1037   1.434       .  S
C1037      N1039   1.154       .  T
C1038      N1040   1.158       .  T
C1041      C1042   1.410       .  A
C1041      C1046   1.415       .  A
C1042      C1043   1.391       .  A
C1042      H1047   1.072       .  S
C1043      C1044   1.418       .  A
C1043      C1050   1.437       .  S
C1044      C1045   1.411       .  A
C1045      C1046   1.428       .  A
C1045      H1048   1.080       .  S
C1046      C1049   1.413       .  S
C1049      N1051   1.149       .  T
C1050      N1052   1.154       .  T
C1053      C1054   1.402       .  A
C1053      C1058   1.422       .  A
C1054      H1059   1.081       .  S
C1055      C1056   1.437       .  A
C1055      C1062   1.409       .  S
C1056      C1057   1.403       .  A
C1057      H1060   1.049       .  S
C1058      C1061   1.417       .  S
C1061      N1063   1.145       .  T
C1062      N1064   1.148       .  T
C1065      C1066   1.416       .  A
C1065      C1070   1.433       .  A
C1066      H1071   1.070       .  S
C1067      C1068   1.422       .  A
C1067      C1074   1.431       .  S
C1068      C1069   1.400       .  A
C1069      H1072   1.089       .  S
C1070      C1073   1.438       .  S
C1073      N1075   1.158       .  T
C1074      N1076   1.154       .  T
C1077      C1078   1.396       .  A
C1077      C1082   1.432       .  A
C1078      C1079   1.404       .  A
C1078      H1083   1.077       .  S
C1079      C1080   1.421       .  A
C1079      C1086   1.446       .  S
C1080      C1081   1.409       .  A
C1081      C1082   1.413       .  A
C1081      H1084   1.063       .  S
C1082      C1085   1.434       .  S
C1085      N1087   1.154       .  T
C1086      N1088   1.157       .  T
O1089     Cr1107   2.039       .  S
O1089      C1097   1.271       .  A
O1090     Cr1107   2.039       .  S
O1090      C1091   1.271       .  A
C1091      O1092   1.271       .  A
C1091      C1118   1.596       .  S
O1092     Cr1108   2.046       .  S
O1093     Cr1108   2.051       .  S
O1093      C1094   1.271       .  A
C1094      O1095   1.280       .  A
C1094      C1114   1.602       .  S
O1095     Cr1109   2.059       .  S
O1096     Cr1109   2.027       .  S
O1096      C1097   1.261       .  A
C1097      C1120   1.587       .  S
O1098     Cr1107   2.026       .  S
O1098      C1106   1.281       .  A
O1099     Cr1107   2.070       .  S
O1099      C1100   1.275       .  A
C1100      O1101   1.270       .  A
C1100      C1122   1.614       .  S
O1101     Cr1108   2.047       .  S
O1102     Cr1108   2.033       .  S
O1102      C1103   1.268       .  A
C1103      O1104   1.259       .  A
C1103      C1115   1.559       .  S
O1104     Cr1109   1.997       .  S
O1105     Cr1109   2.056       .  S
O1105      C1106   1.268       .  A
C1106      C1117   1.594       .  S
Cr1107     O1110   1.782       .  S
Cr1108     O1110   1.760       .  S
Cr1109     O1110   1.786       .  S
C1111      C1140   1.597       .  S
C1111      C1328   1.618       .  S
C1111      C1337   1.569       .  S
C1111      C1349   1.599       .  S
C1112      C1125   1.605       .  S
C1112      C1292   1.594       .  S
C1112      C1301   1.602       .  S
C1112      C1313   1.606       .  S
C1113      C1131   1.571       .  S
C1113      C1268   1.605       .  S
C1113      C1280   1.639       .  S
C1113      C1340   1.569       .  S
C1114      C1256   1.601       .  S
C1114      C1277   1.606       .  S
C1114      C1304   1.614       .  S
C1115      C1241   1.607       .  S
C1115      C1253   1.590       .  S
C1115      C1325   1.606       .  S
C1116      C1134   1.623       .  S
C1116      C1232   1.604       .  S
C1116      C1244   1.626       .  S
C1116      C1289   1.590       .  S
C1117      C1205   1.611       .  S
C1117      C1217   1.604       .  S
C1117      C1229   1.581       .  S
C1118      C1181   1.593       .  S
C1118      C1193   1.601       .  S
C1118      C1265   1.599       .  S
C1119      C1128   1.615       .  S
C1119      C1160   1.600       .  S
C1119      C1169   1.614       .  S
C1119      C1196   1.610       .  S
C1120      C1172   1.613       .  S
C1120      C1220   1.582       .  S
C1120      C1316   1.583       .  S
C1121      C1137   1.593       .  S
C1121      C1148   1.577       .  S
C1121      C1157   1.621       .  S
C1121      C1208   1.586       .  S
C1122      C1145   1.592       .  S
C1122      C1184   1.593       .  S
C1122      C1352   1.593       .  S
O1123     Cr1141   2.048       .  S
O1123      C1131   1.270       .  A
O1124     Cr1141   1.978       .  S
O1124      C1125   1.266       .  A
C1125      O1126   1.278       .  A
O1126     Cr1142   2.054       .  S
O1127     Cr1142   2.049       .  S
O1127      C1128   1.275       .  A
C1128      O1129   1.264       .  A
O1129     Cr1143   2.042       .  S
O1130     Cr1143   2.016       .  S
O1130      C1131   1.259       .  A
O1132     Cr1141   2.056       .  S
O1132      C1140   1.277       .  A
O1133     Cr1141   2.057       .  S
O1133      C1134   1.284       .  A
C1134      O1135   1.270       .  A
O1135     Cr1142   2.029       .  S
O1136     Cr1142   2.035       .  S
O1136      C1137   1.268       .  A
C1137      O1138   1.254       .  A
O1138     Cr1143   2.006       .  S
O1139     Cr1143   2.023       .  S
O1139      C1140   1.261       .  A
Cr1141     O1144   1.793       .  S
Cr1142     O1144   1.799       .  S
Cr1143     O1144   1.769       .  S
C1145      C1146   1.417       .  A
C1145      C1150   1.424       .  A
C1146      H1151   1.078       .  S
C1147      C1148   1.419       .  A
C1147      C1154   1.442       .  S
C1148      C1149   1.402       .  A
C1149      H1152   1.067       .  S
C1150      C1153   1.428       .  S
C1153      N1155   1.157       .  T
C1154      N1156   1.156       .  T
C1157      C1158   1.405       .  A
C1157      C1162   1.435       .  A
C1158      C1431   1.374   1_554  A
C1158      H1163   1.078       .  S
C1159      C1430   1.374       .  A
C1159      C1160   1.431       .  A
C1159      C1166   1.438       .  S
C1160      C1161   1.419       .  A
C1161      C1434   1.431       .  A
C1161      H1164   1.080       .  S
C1162      C1433   1.431   1_554  A
C1162      C1165   1.433       .  S
C1165      N1167   1.159       .  T
C1166      N1168   1.157   1_655  T
C1169      C1170   1.412       .  A
C1169      C1174   1.436       .  A
C1170      C1715   1.420   1_545  A
C1170      H1175   1.084       .  S
C1171      C1714   1.420       .  A
C1171      C1172   1.441       .  A
C1171      C1178   1.433       .  S
C1172      C1173   1.405       .  A
C1173      C1718   1.408       .  A
C1173      H1176   1.075       .  S
C1174      C1717   1.408   1_545  A
C1174      C1177   1.430       .  S
C1177      N1179   1.155       .  T
C1178      N1180   1.158       .  T
C1181      C1182   1.423       .  A
C1181      C1186   1.431       .  A
C1182      C1455   1.436       .  A
C1182      H1187   1.068       .  S
C1183      C1454   1.436   1_554  A
C1183      C1184   1.418       .  A
C1183      C1190   1.432       .  S
C1184      C1185   1.402       .  A
C1185      C1458   1.388   1_554  A
C1185      H1188   1.070       .  S
C1186      C1457   1.388       .  A
C1186      C1189   1.444       .  S
C1189      N1191   1.158       .  T
C1190      N1192   1.154       .  T
C1193      C1194   1.414       .  A
C1193      C1198   1.422       .  A
C1194      H1199   1.074       .  S
C1195      C1196   1.429       .  A
C1195      C1202   1.440       .  S
C1196      C1197   1.404       .  A
C1197      H1200   1.075       .  S
C1198      C1201   1.421       .  S
C1201      N1203   1.152       .  T
C1202      N1204   1.158       .  T
C1205      C1206   1.412       .  A
C1205      C1210   1.435       .  A
C1206      C1751   1.374       .  A
C1206      H1211   1.067       .  S
C1207      C1750   1.374   1_545  A
C1207      C1208   1.399       .  A
C1207      C1214   1.443       .  S
C1208      C1209   1.416       .  A
C1209      C1754   1.421   1_545  A
C1209      H1212   1.077       .  S
C1210      C1753   1.421       .  A
C1210      C1213   1.430       .  S
C1213      N1215   1.157       .  T
C1214      N1216   1.157       .  T
C1217      C1218   1.417       .  A
C1217      C1222   1.443       .  A
C1218      C1491   1.437   1_554  A
C1218      H1223   1.075       .  S
C1219      C1490   1.437       .  A
C1219      C1220   1.422       .  A
C1219      C1226   1.428       .  S
C1220      C1221   1.384       .  A
C1221      C1494   1.375       .  A
C1221      H1224   1.071       .  S
C1222      C1493   1.375   1_554  A
C1222      C1225   1.440       .  S
C1225      N1227   1.154       .  T
C1226      N1228   1.153       .  T
C1229      C1230   1.397       .  A
C1229      C1234   1.421       .  A
C1230      C1231   1.416       .  A
C1230      H1235   1.084       .  S
C1231      C1232   1.444       .  A
C1231      C1238   1.426       .  S
C1232      C1233   1.408       .  A
C1233      C1234   1.394       .  A
C1233      H1236   1.062       .  S
C1234      C1237   1.440       .  S
C1237      N1239   1.154       .  T
C1238      N1240   1.155       .  T
C1241      C1242   1.399       .  A
C1241      C1246   1.432       .  A
C1242      H1247   1.089       .  S
C1243      C1244   1.453       .  A
C1243      C1250   1.430       .  S
C1244      C1245   1.402       .  A
C1245      H1248   1.082       .  S
C1246      C1249   1.413       .  S
C1249      N1251   1.147       .  T
C1250      N1252   1.155       .  T
C1253      C1254   1.417       .  A
C1253      C1258   1.401       .  A
C1254      C1527   1.411   1_554  A
C1254      H1259   1.068       .  S
C1255      C1526   1.411       .  A
C1255      C1256   1.422       .  A
C1255      C1262   1.433       .  S
C1256      C1257   1.423       .  A
C1257      C1530   1.396       .  A
C1257      H1260   1.064       .  S
C1258      C1529   1.396   1_554  A
C1258      C1261   1.419       .  S
C1261      N1263   1.148       .  T
C1262      N1264   1.153       .  T
C1265      C1266   1.409       .  A
C1265      C1270   1.415       .  A
C1266      C1267   1.400       .  A
C1266      H1271   1.074       .  S
C1267      C1268   1.443       .  A
C1267      C1274   1.438       .  S
C1268      C1269   1.421       .  A
C1269      C1270   1.434       .  A
C1269      H1272   1.077       .  S
C1270      C1273   1.431       .  S
C1273      N1275   1.155       .  T
C1274      N1276   1.154       .  T
C1277      C1278   1.387       .  A
C1277      C1282   1.423       .  A
C1278      C1823   1.380       .  A
C1278      H1283   1.078       .  S
C1279      C1822   1.380   1_545  A
C1279      C1280   1.448       .  A
C1279      C1286   1.435       .  S
C1280      C1281   1.428       .  A
C1281      C1826   1.448   1_545  A
C1281      H1284   1.081       .  S
C1282      C1825   1.448       .  A
C1282      C1285   1.404       .  S
C1285      N1287   1.147       .  T
C1286      N1288   1.154       .  T
C1289      C1290   1.382       .  A
C1289      C1294   1.428       .  A
C1290      C1563   1.377   1_554  A
C1290      H1295   1.067       .  S
C1291      C1562   1.377       .  A
C1291      C1292   1.421       .  A
C1291      C1298   1.422       .  S
C1292      C1293   1.413       .  A
C1293      C1566   1.437       .  A
C1293      H1296   1.067       .  S
C1294      C1565   1.437   1_554  A
C1294      C1297   1.427       .  S
C1297      N1299   1.153       .  T
C1298      N1300   1.150       .  T
C1301      C1302   1.412       .  A
C1301      C1306   1.422       .  A
C1302      H1307   1.063       .  S
C1303      C1304   1.439       .  A
C1303      C1310   1.444       .  S
C1304      C1305   1.413       .  A
C1305      H1308   1.083       .  S
C1306      C1309   1.434       .  S
C1309      N1311   1.154       .  T
C1310      N1312   1.158       .  T
C1313      C1314   1.410       .  A
C1313      C1318   1.415       .  A
C1314      C1315   1.391       .  A
C1314      H1319   1.072       .  S
C1315      C1316   1.418       .  A
C1315      C1322   1.437       .  S
C1316      C1317   1.411       .  A
C1317      C1318   1.428       .  A
C1317      H1320   1.080       .  S
C1318      C1321   1.413       .  S
C1321      N1323   1.149       .  T
C1322      N1324   1.154       .  T
C1325      C1326   1.402       .  A
C1325      C1330   1.422       .  A
C1326      C1871   1.408       .  A
C1326      H1331   1.081       .  S
C1327      C1870   1.408   1_545  A
C1327      C1328   1.437       .  A
C1327      C1334   1.409       .  S
C1328      C1329   1.403       .  A
C1329      C1874   1.396   1_545  A
C1329      H1332   1.049       .  S
C1330      C1873   1.396       .  A
C1330      C1333   1.417       .  S
C1333      N1335   1.145       .  T
C1334      N1336   1.148       .  T
C1337      C1338   1.416       .  A
C1337      C1342   1.433       .  A
C1338      C1611   1.431   1_554  A
C1338      H1343   1.070       .  S
C1339      C1610   1.431       .  A
C1339      C1340   1.422       .  A
C1339      C1346   1.431       .  S
C1340      C1341   1.400       .  A
C1341      C1614   1.368       .  A
C1341      H1344   1.089       .  S
C1342      C1613   1.368   1_554  A
C1342      C1345   1.438       .  S
C1345      N1347   1.158       .  T
C1346      N1348   1.154       .  T
C1349      C1350   1.396       .  A
C1349      C1354   1.432       .  A
C1350      C1351   1.404       .  A
C1350      H1355   1.077       .  S
C1351      C1352   1.421       .  A
C1351      C1358   1.446       .  S
C1352      C1353   1.409       .  A
C1353      C1354   1.413       .  A
C1353      H1356   1.063       .  S
C1354      C1357   1.434       .  S
C1357      N1359   1.154       .  T
C1358      N1360   1.157       .  T
O1361     Cr1379   2.039       .  S
O1361      C1369   1.271       .  A
O1362     Cr1379   2.039       .  S
O1362      C1363   1.271       .  A
C1363      O1364   1.271       .  A
C1363      C1390   1.596       .  S
O1364     Cr1380   2.046       .  S
O1365     Cr1380   2.051       .  S
O1365      C1366   1.271       .  A
C1366      O1367   1.280       .  A
C1366      C1386   1.602       .  S
O1367     Cr1381   2.059       .  S
O1368     Cr1381   2.027       .  S
O1368      C1369   1.261       .  A
C1369      C1392   1.587       .  S
O1370     Cr1379   2.026       .  S
O1370      C1378   1.281       .  A
O1371     Cr1379   2.070       .  S
O1371      C1372   1.275       .  A
C1372      O1373   1.270       .  A
C1372      C1394   1.614       .  S
O1373     Cr1380   2.047       .  S
O1374     Cr1380   2.033       .  S
O1374      C1375   1.268       .  A
C1375      O1376   1.259       .  A
C1375      C1387   1.559       .  S
O1376     Cr1381   1.997       .  S
O1377     Cr1381   2.056       .  S
O1377      C1378   1.268       .  A
C1378      C1389   1.594       .  S
Cr1379     O1382   1.782       .  S
Cr1380     O1382   1.760       .  S
Cr1381     O1382   1.786       .  S
C1383      C1412   1.597       .  S
C1383      C1600   1.618       .  S
C1383      C1609   1.569       .  S
C1383      C1621   1.599       .  S
C1384      C1397   1.605       .  S
C1384      C1564   1.594       .  S
C1384      C1573   1.602       .  S
C1384      C1585   1.606       .  S
C1385      C1403   1.571       .  S
C1385      C1540   1.605       .  S
C1385      C1552   1.639       .  S
C1385      C1612   1.569       .  S
C1386      C1528   1.601       .  S
C1386      C1549   1.606       .  S
C1386      C1576   1.614       .  S
C1387      C1513   1.607       .  S
C1387      C1525   1.590       .  S
C1387      C1597   1.606       .  S
C1388      C1406   1.623       .  S
C1388      C1504   1.604       .  S
C1388      C1516   1.626       .  S
C1388      C1561   1.590       .  S
C1389      C1477   1.611       .  S
C1389      C1489   1.604       .  S
C1389      C1501   1.581       .  S
C1390      C1453   1.593       .  S
C1390      C1465   1.601       .  S
C1390      C1537   1.599       .  S
C1391      C1400   1.615       .  S
C1391      C1432   1.600       .  S
C1391      C1441   1.614       .  S
C1391      C1468   1.610       .  S
C1392      C1444   1.613       .  S
C1392      C1492   1.582       .  S
C1392      C1588   1.583       .  S
C1393      C1409   1.593       .  S
C1393      C1420   1.577       .  S
C1393      C1429   1.621       .  S
C1393      C1480   1.586       .  S
C1394      C1417   1.592       .  S
C1394      C1456   1.593       .  S
C1394      C1624   1.593       .  S
O1395     Cr1413   2.048       .  S
O1395      C1403   1.270       .  A
O1396     Cr1413   1.978       .  S
O1396      C1397   1.266       .  A
C1397      O1398   1.278       .  A
O1398     Cr1414   2.054       .  S
O1399     Cr1414   2.049       .  S
O1399      C1400   1.275       .  A
C1400      O1401   1.264       .  A
O1401     Cr1415   2.042       .  S
O1402     Cr1415   2.016       .  S
O1402      C1403   1.259       .  A
O1404     Cr1413   2.056       .  S
O1404      C1412   1.277       .  A
O1405     Cr1413   2.057       .  S
O1405      C1406   1.284       .  A
C1406      O1407   1.270       .  A
O1407     Cr1414   2.029       .  S
O1408     Cr1414   2.035       .  S
O1408      C1409   1.268       .  A
C1409      O1410   1.254       .  A
O1410     Cr1415   2.006       .  S
O1411     Cr1415   2.023       .  S
O1411      C1412   1.261       .  A
Cr1413     O1416   1.793       .  S
Cr1414     O1416   1.799       .  S
Cr1415     O1416   1.769       .  S
C1417      C1418   1.417       .  A
C1417      C1422   1.424       .  A
C1418      H1423   1.078       .  S
C1419      C1420   1.419       .  A
C1419      C1426   1.442       .  S
C1420      C1421   1.402       .  A
C1421      H1424   1.067       .  S
C1422      C1425   1.428       .  S
C1425      N1427   1.157       .  T
C1426      N1428   1.156       .  T
C1429      C1430   1.405       .  A
C1429      C1434   1.435       .  A
C1430      H1435   1.078       .  S
C1431      C1432   1.431       .  A
C1431      C1438   1.438       .  S
C1432      C1433   1.419       .  A
C1433      H1436   1.080       .  S
C1434      C1437   1.433       .  S
C1437      N1439   1.159       .  T
C1438      N1440   1.157   1_655  T
C1441      C1442   1.412       .  A
C1441      C1446   1.436       .  A
C1442      C1987   1.420   1_545  A
C1442      H1447   1.084       .  S
C1443      C1986   1.420       .  A
C1443      C1444   1.441       .  A
C1443      C1450   1.433       .  S
C1444      C1445   1.405       .  A
C1445      C1990   1.408       .  A
C1445      H1448   1.075       .  S
C1446      C1989   1.408   1_545  A
C1446      C1449   1.430       .  S
C1449      N1451   1.155       .  T
C1450      N1452   1.158       .  T
C1453      C1454   1.423       .  A
C1453      C1458   1.431       .  A
C1454      H1459   1.068       .  S
C1455      C1456   1.418       .  A
C1455      C1462   1.432       .  S
C1456      C1457   1.402       .  A
C1457      H1460   1.070       .  S
C1458      C1461   1.444       .  S
C1461      N1463   1.158       .  T
C1462      N1464   1.154       .  T
C1465      C1466   1.414       .  A
C1465      C1470   1.422       .  A
C1466      H1471   1.074       .  S
C1467      C1468   1.429       .  A
C1467      C1474   1.440       .  S
C1468      C1469   1.404       .  A
C1469      H1472   1.075       .  S
C1470      C1473   1.421       .  S
C1473      N1475   1.152       .  T
C1474      N1476   1.158       .  T
C1477      C1478   1.412       .  A
C1477      C1482   1.435       .  A
C1478      C2023   1.374       .  A
C1478      H1483   1.067       .  S
C1479      C2022   1.374   1_545  A
C1479      C1480   1.399       .  A
C1479      C1486   1.443       .  S
C1480      C1481   1.416       .  A
C1481      C2026   1.421   1_545  A
C1481      H1484   1.077       .  S
C1482      C2025   1.421       .  A
C1482      C1485   1.430       .  S
C1485      N1487   1.157       .  T
C1486      N1488   1.157       .  T
C1489      C1490   1.417       .  A
C1489      C1494   1.443       .  A
C1490      H1495   1.075       .  S
C1491      C1492   1.422       .  A
C1491      C1498   1.428       .  S
C1492      C1493   1.384       .  A
C1493      H1496   1.071       .  S
C1494      C1497   1.440       .  S
C1497      N1499   1.154       .  T
C1498      N1500   1.153       .  T
C1501      C1502   1.397       .  A
C1501      C1506   1.421       .  A
C1502      C1503   1.416       .  A
C1502      H1507   1.084       .  S
C1503      C1504   1.444       .  A
C1503      C1510   1.426       .  S
C1504      C1505   1.408       .  A
C1505      C1506   1.394       .  A
C1505      H1508   1.062       .  S
C1506      C1509   1.440       .  S
C1509      N1511   1.154       .  T
C1510      N1512   1.155       .  T
C1513      C1514   1.399       .  A
C1513      C1518   1.432       .  A
C1514      H1519   1.089       .  S
C1515      C1516   1.453       .  A
C1515      C1522   1.430       .  S
C1516      C1517   1.402       .  A
C1517      H1520   1.082       .  S
C1518      C1521   1.413       .  S
C1521      N1523   1.147       .  T
C1522      N1524   1.155       .  T
C1525      C1526   1.417       .  A
C1525      C1530   1.401       .  A
C1526      H1531   1.068       .  S
C1527      C1528   1.422       .  A
C1527      C1534   1.433       .  S
C1528      C1529   1.423       .  A
C1529      H1532   1.064       .  S
C1530      C1533   1.419       .  S
C1533      N1535   1.148       .  T
C1534      N1536   1.153       .  T
C1537      C1538   1.409       .  A
C1537      C1542   1.415       .  A
C1538      C1539   1.400       .  A
C1538      H1543   1.074       .  S
C1539      C1540   1.443       .  A
C1539      C1546   1.438       .  S
C1540      C1541   1.421       .  A
C1541      C1542   1.434       .  A
C1541      H1544   1.077       .  S
C1542      C1545   1.431       .  S
C1545      N1547   1.155       .  T
C1546      N1548   1.154       .  T
C1549      C1550   1.387       .  A
C1549      C1554   1.423       .  A
C1550      C2095   1.380       .  A
C1550      H1555   1.078       .  S
C1551      C2094   1.380   1_545  A
C1551      C1552   1.448       .  A
C1551      C1558   1.435       .  S
C1552      C1553   1.428       .  A
C1553      C2098   1.448   1_545  A
C1553      H1556   1.081       .  S
C1554      C2097   1.448       .  A
C1554      C1557   1.404       .  S
C1557      N1559   1.147       .  T
C1558      N1560   1.154       .  T
C1561      C1562   1.382       .  A
C1561      C1566   1.428       .  A
C1562      H1567   1.067       .  S
C1563      C1564   1.421       .  A
C1563      C1570   1.422       .  S
C1564      C1565   1.413       .  A
C1565      H1568   1.067       .  S
C1566      C1569   1.427       .  S
C1569      N1571   1.153       .  T
C1570      N1572   1.150       .  T
C1573      C1574   1.412       .  A
C1573      C1578   1.422       .  A
C1574      H1579   1.063       .  S
C1575      C1576   1.439       .  A
C1575      C1582   1.444       .  S
C1576      C1577   1.413       .  A
C1577      H1580   1.083       .  S
C1578      C1581   1.434       .  S
C1581      N1583   1.154       .  T
C1582      N1584   1.158       .  T
C1585      C1586   1.410       .  A
C1585      C1590   1.415       .  A
C1586      C1587   1.391       .  A
C1586      H1591   1.072       .  S
C1587      C1588   1.418       .  A
C1587      C1594   1.437       .  S
C1588      C1589   1.411       .  A
C1589      C1590   1.428       .  A
C1589      H1592   1.080       .  S
C1590      C1593   1.413       .  S
C1593      N1595   1.149       .  T
C1594      N1596   1.154       .  T
C1597      C1598   1.402       .  A
C1597      C1602   1.422       .  A
C1598      C2143   1.408       .  A
C1598      H1603   1.081       .  S
C1599      C2142   1.408   1_545  A
C1599      C1600   1.437       .  A
C1599      C1606   1.409       .  S
C1600      C1601   1.403       .  A
C1601      C2146   1.396   1_545  A
C1601      H1604   1.049       .  S
C1602      C2145   1.396       .  A
C1602      C1605   1.417       .  S
C1605      N1607   1.145       .  T
C1606      N1608   1.148       .  T
C1609      C1610   1.416       .  A
C1609      C1614   1.433       .  A
C1610      H1615   1.070       .  S
C1611      C1612   1.422       .  A
C1611      C1618   1.431       .  S
C1612      C1613   1.400       .  A
C1613      H1616   1.089       .  S
C1614      C1617   1.438       .  S
C1617      N1619   1.158       .  T
C1618      N1620   1.154       .  T
C1621      C1622   1.396       .  A
C1621      C1626   1.432       .  A
C1622      C1623   1.404       .  A
C1622      H1627   1.077       .  S
C1623      C1624   1.421       .  A
C1623      C1630   1.446       .  S
C1624      C1625   1.409       .  A
C1625      C1626   1.413       .  A
C1625      H1628   1.063       .  S
C1626      C1629   1.434       .  S
C1629      N1631   1.154       .  T
C1630      N1632   1.157       .  T
O1633     Cr1651   2.039       .  S
O1633      C1641   1.271       .  A
O1634     Cr1651   2.039       .  S
O1634      C1635   1.271       .  A
C1635      O1636   1.271       .  A
C1635      C1662   1.596       .  S
O1636     Cr1652   2.046       .  S
O1637     Cr1652   2.051       .  S
O1637      C1638   1.271       .  A
C1638      O1639   1.280       .  A
C1638      C1658   1.602       .  S
O1639     Cr1653   2.059       .  S
O1640     Cr1653   2.027       .  S
O1640      C1641   1.261       .  A
C1641      C1664   1.587       .  S
O1642     Cr1651   2.026       .  S
O1642      C1650   1.281       .  A
O1643     Cr1651   2.070       .  S
O1643      C1644   1.275       .  A
C1644      O1645   1.270       .  A
C1644      C1666   1.614       .  S
O1645     Cr1652   2.047       .  S
O1646     Cr1652   2.033       .  S
O1646      C1647   1.268       .  A
C1647      O1648   1.259       .  A
C1647      C1659   1.559       .  S
O1648     Cr1653   1.997       .  S
O1649     Cr1653   2.056       .  S
O1649      C1650   1.268       .  A
C1650      C1661   1.594       .  S
Cr1651     O1654   1.782       .  S
Cr1652     O1654   1.760       .  S
Cr1653     O1654   1.786       .  S
C1655      C1684   1.597       .  S
C1655      C1872   1.618       .  S
C1655      C1881   1.569       .  S
C1655      C1893   1.599       .  S
C1656      C1669   1.605       .  S
C1656      C1836   1.594       .  S
C1656      C1845   1.602       .  S
C1656      C1857   1.606       .  S
C1657      C1675   1.571       .  S
C1657      C1812   1.605       .  S
C1657      C1824   1.639       .  S
C1657      C1884   1.569       .  S
C1658      C1800   1.601       .  S
C1658      C1821   1.606       .  S
C1658      C1848   1.614       .  S
C1659      C1785   1.607       .  S
C1659      C1797   1.590       .  S
C1659      C1869   1.606       .  S
C1660      C1678   1.623       .  S
C1660      C1776   1.604       .  S
C1660      C1788   1.626       .  S
C1660      C1833   1.590       .  S
C1661      C1749   1.611       .  S
C1661      C1761   1.604       .  S
C1661      C1773   1.581       .  S
C1662      C1725   1.593       .  S
C1662      C1737   1.601       .  S
C1662      C1809   1.599       .  S
C1663      C1672   1.615       .  S
C1663      C1704   1.600       .  S
C1663      C1713   1.614       .  S
C1663      C1740   1.610       .  S
C1664      C1716   1.613       .  S
C1664      C1764   1.582       .  S
C1664      C1860   1.583       .  S
C1665      C1681   1.593       .  S
C1665      C1692   1.577       .  S
C1665      C1701   1.621       .  S
C1665      C1752   1.586       .  S
C1666      C1689   1.592       .  S
C1666      C1728   1.593       .  S
C1666      C1896   1.593       .  S
O1667     Cr1685   2.048       .  S
O1667      C1675   1.270       .  A
O1668     Cr1685   1.978       .  S
O1668      C1669   1.266       .  A
C1669      O1670   1.278       .  A
O1670     Cr1686   2.054       .  S
O1671     Cr1686   2.049       .  S
O1671      C1672   1.275       .  A
C1672      O1673   1.264       .  A
O1673     Cr1687   2.042       .  S
O1674     Cr1687   2.016       .  S
O1674      C1675   1.259       .  A
O1676     Cr1685   2.056       .  S
O1676      C1684   1.277       .  A
O1677     Cr1685   2.057       .  S
O1677      C1678   1.284       .  A
C1678      O1679   1.270       .  A
O1679     Cr1686   2.029       .  S
O1680     Cr1686   2.035       .  S
O1680      C1681   1.268       .  A
C1681      O1682   1.254       .  A
O1682     Cr1687   2.006       .  S
O1683     Cr1687   2.023       .  S
O1683      C1684   1.261       .  A
Cr1685     O1688   1.793       .  S
Cr1686     O1688   1.799       .  S
Cr1687     O1688   1.769       .  S
C1689      C1690   1.417       .  A
C1689      C1694   1.424       .  A
C1690      H1695   1.078       .  S
C1691      C1692   1.419       .  A
C1691      C1698   1.442       .  S
C1692      C1693   1.402       .  A
C1693      H1696   1.067       .  S
C1694      C1697   1.428       .  S
C1697      N1699   1.157       .  T
C1698      N1700   1.156       .  T
C1701      C1702   1.405       .  A
C1701      C1706   1.435       .  A
C1702      C1975   1.374   1_554  A
C1702      H1707   1.078       .  S
C1703      C1974   1.374       .  A
C1703      C1704   1.431       .  A
C1703      C1710   1.438       .  S
C1704      C1705   1.419       .  A
C1705      C1978   1.431       .  A
C1705      H1708   1.080       .  S
C1706      C1977   1.431   1_554  A
C1706      C1709   1.433       .  S
C1709      N1711   1.159       .  T
C1710      N1712   1.157   1_655  T
C1713      C1714   1.412       .  A
C1713      C1718   1.436       .  A
C1714      H1719   1.084       .  S
C1715      C1716   1.441       .  A
C1715      C1722   1.433       .  S
C1716      C1717   1.405       .  A
C1717      H1720   1.075       .  S
C1718      C1721   1.430       .  S
C1721      N1723   1.155       .  T
C1722      N1724   1.158       .  T
C1725      C1726   1.423       .  A
C1725      C1730   1.431       .  A
C1726      C1999   1.436       .  A
C1726      H1731   1.068       .  S
C1727      C1998   1.436   1_554  A
C1727      C1728   1.418       .  A
C1727      C1734   1.432       .  S
C1728      C1729   1.402       .  A
C1729      C2002   1.388   1_554  A
C1729      H1732   1.070       .  S
C1730      C2001   1.388       .  A
C1730      C1733   1.444       .  S
C1733      N1735   1.158       .  T
C1734      N1736   1.154       .  T
C1737      C1738   1.414       .  A
C1737      C1742   1.422       .  A
C1738      H1743   1.074       .  S
C1739      C1740   1.429       .  A
C1739      C1746   1.440       .  S
C1740      C1741   1.404       .  A
C1741      H1744   1.075       .  S
C1742      C1745   1.421       .  S
C1745      N1747   1.152       .  T
C1746      N1748   1.158       .  T
C1749      C1750   1.412       .  A
C1749      C1754   1.435       .  A
C1750      H1755   1.067       .  S
C1751      C1752   1.399       .  A
C1751      C1758   1.443       .  S
C1752      C1753   1.416       .  A
C1753      H1756   1.077       .  S
C1754      C1757   1.430       .  S
C1757      N1759   1.157       .  T
C1758      N1760   1.157       .  T
C1761      C1762   1.417       .  A
C1761      C1766   1.443       .  A
C1762      C2035   1.437   1_554  A
C1762      H1767   1.075       .  S
C1763      C2034   1.437       .  A
C1763      C1764   1.422       .  A
C1763      C1770   1.428       .  S
C1764      C1765   1.384       .  A
C1765      C2038   1.375       .  A
C1765      H1768   1.071       .  S
C1766      C2037   1.375   1_554  A
C1766      C1769   1.440       .  S
C1769      N1771   1.154       .  T
C1770      N1772   1.153       .  T
C1773      C1774   1.397       .  A
C1773      C1778   1.421       .  A
C1774      C1775   1.416       .  A
C1774      H1779   1.084       .  S
C1775      C1776   1.444       .  A
C1775      C1782   1.426       .  S
C1776      C1777   1.408       .  A
C1777      C1778   1.394       .  A
C1777      H1780   1.062       .  S
C1778      C1781   1.440       .  S
C1781      N1783   1.154       .  T
C1782      N1784   1.155       .  T
C1785      C1786   1.399       .  A
C1785      C1790   1.432       .  A
C1786      H1791   1.089       .  S
C1787      C1788   1.453       .  A
C1787      C1794   1.430       .  S
C1788      C1789   1.402       .  A
C1789      H1792   1.082       .  S
C1790      C1793   1.413       .  S
C1793      N1795   1.147       .  T
C1794      N1796   1.155       .  T
C1797      C1798   1.417       .  A
C1797      C1802   1.401       .  A
C1798      C2071   1.411   1_554  A
C1798      H1803   1.068       .  S
C1799      C2070   1.411       .  A
C1799      C1800   1.422       .  A
C1799      C1806   1.433       .  S
C1800      C1801   1.423       .  A
C1801      C2074   1.396       .  A
C1801      H1804   1.064       .  S
C1802      C2073   1.396   1_554  A
C1802      C1805   1.419       .  S
C1805      N1807   1.148       .  T
C1806      N1808   1.153       .  T
C1809      C1810   1.409       .  A
C1809      C1814   1.415       .  A
C1810      C1811   1.400       .  A
C1810      H1815   1.074       .  S
C1811      C1812   1.443       .  A
C1811      C1818   1.438       .  S
C1812      C1813   1.421       .  A
C1813      C1814   1.434       .  A
C1813      H1816   1.077       .  S
C1814      C1817   1.431       .  S
C1817      N1819   1.155       .  T
C1818      N1820   1.154       .  T
C1821      C1822   1.387       .  A
C1821      C1826   1.423       .  A
C1822      H1827   1.078       .  S
C1823      C1824   1.448       .  A
C1823      C1830   1.435       .  S
C1824      C1825   1.428       .  A
C1825      H1828   1.081       .  S
C1826      C1829   1.404       .  S
C1829      N1831   1.147       .  T
C1830      N1832   1.154       .  T
C1833      C1834   1.382       .  A
C1833      C1838   1.428       .  A
C1834      C2107   1.377   1_554  A
C1834      H1839   1.067       .  S
C1835      C2106   1.377       .  A
C1835      C1836   1.421       .  A
C1835      C1842   1.422       .  S
C1836      C1837   1.413       .  A
C1837      C2110   1.437       .  A
C1837      H1840   1.067       .  S
C1838      C2109   1.437   1_554  A
C1838      C1841   1.427       .  S
C1841      N1843   1.153       .  T
C1842      N1844   1.150       .  T
C1845      C1846   1.412       .  A
C1845      C1850   1.422       .  A
C1846      H1851   1.063       .  S
C1847      C1848   1.439       .  A
C1847      C1854   1.444       .  S
C1848      C1849   1.413       .  A
C1849      H1852   1.083       .  S
C1850      C1853   1.434       .  S
C1853      N1855   1.154       .  T
C1854      N1856   1.158       .  T
C1857      C1858   1.410       .  A
C1857      C1862   1.415       .  A
C1858      C1859   1.391       .  A
C1858      H1863   1.072       .  S
C1859      C1860   1.418       .  A
C1859      C1866   1.437       .  S
C1860      C1861   1.411       .  A
C1861      C1862   1.428       .  A
C1861      H1864   1.080       .  S
C1862      C1865   1.413       .  S
C1865      N1867   1.149       .  T
C1866      N1868   1.154       .  T
C1869      C1870   1.402       .  A
C1869      C1874   1.422       .  A
C1870      H1875   1.081       .  S
C1871      C1872   1.437       .  A
C1871      C1878   1.409       .  S
C1872      C1873   1.403       .  A
C1873      H1876   1.049       .  S
C1874      C1877   1.417       .  S
C1877      N1879   1.145       .  T
C1878      N1880   1.148       .  T
C1881      C1882   1.416       .  A
C1881      C1886   1.433       .  A
C1882      C2155   1.431   1_554  A
C1882      H1887   1.070       .  S
C1883      C2154   1.431       .  A
C1883      C1884   1.422       .  A
C1883      C1890   1.431       .  S
C1884      C1885   1.400       .  A
C1885      C2158   1.368       .  A
C1885      H1888   1.089       .  S
C1886      C2157   1.368   1_554  A
C1886      C1889   1.438       .  S
C1889      N1891   1.158       .  T
C1890      N1892   1.154       .  T
C1893      C1894   1.396       .  A
C1893      C1898   1.432       .  A
C1894      C1895   1.404       .  A
C1894      H1899   1.077       .  S
C1895      C1896   1.421       .  A
C1895      C1902   1.446       .  S
C1896      C1897   1.409       .  A
C1897      C1898   1.413       .  A
C1897      H1900   1.063       .  S
C1898      C1901   1.434       .  S
C1901      N1903   1.154       .  T
C1902      N1904   1.157       .  T
O1905     Cr1923   2.039       .  S
O1905      C1913   1.271       .  A
O1906     Cr1923   2.039       .  S
O1906      C1907   1.271       .  A
C1907      O1908   1.271       .  A
C1907      C1934   1.596       .  S
O1908     Cr1924   2.046       .  S
O1909     Cr1924   2.051       .  S
O1909      C1910   1.271       .  A
C1910      O1911   1.280       .  A
C1910      C1930   1.602       .  S
O1911     Cr1925   2.059       .  S
O1912     Cr1925   2.027       .  S
O1912      C1913   1.261       .  A
C1913      C1936   1.587       .  S
O1914     Cr1923   2.026       .  S
O1914      C1922   1.281       .  A
O1915     Cr1923   2.070       .  S
O1915      C1916   1.275       .  A
C1916      O1917   1.270       .  A
C1916      C1938   1.614       .  S
O1917     Cr1924   2.047       .  S
O1918     Cr1924   2.033       .  S
O1918      C1919   1.268       .  A
C1919      O1920   1.259       .  A
C1919      C1931   1.559       .  S
O1920     Cr1925   1.997       .  S
O1921     Cr1925   2.056       .  S
O1921      C1922   1.268       .  A
C1922      C1933   1.594       .  S
Cr1923     O1926   1.782       .  S
Cr1924     O1926   1.760       .  S
Cr1925     O1926   1.786       .  S
C1927      C1956   1.597       .  S
C1927      C2144   1.618       .  S
C1927      C2153   1.569       .  S
C1927      C2165   1.599       .  S
C1928      C1941   1.605       .  S
C1928      C2108   1.594       .  S
C1928      C2117   1.602       .  S
C1928      C2129   1.606       .  S
C1929      C1947   1.571       .  S
C1929      C2084   1.605       .  S
C1929      C2096   1.639       .  S
C1929      C2156   1.569       .  S
C1930      C2072   1.601       .  S
C1930      C2093   1.606       .  S
C1930      C2120   1.614       .  S
C1931      C2057   1.607       .  S
C1931      C2069   1.590       .  S
C1931      C2141   1.606       .  S
C1932      C1950   1.623       .  S
C1932      C2048   1.604       .  S
C1932      C2060   1.626       .  S
C1932      C2105   1.590       .  S
C1933      C2021   1.611       .  S
C1933      C2033   1.604       .  S
C1933      C2045   1.581       .  S
C1934      C1997   1.593       .  S
C1934      C2009   1.601       .  S
C1934      C2081   1.599       .  S
C1935      C1944   1.615       .  S
C1935      C1976   1.600       .  S
C1935      C1985   1.614       .  S
C1935      C2012   1.610       .  S
C1936      C1988   1.613       .  S
C1936      C2036   1.582       .  S
C1936      C2132   1.583       .  S
C1937      C1953   1.593       .  S
C1937      C1964   1.577       .  S
C1937      C1973   1.621       .  S
C1937      C2024   1.586       .  S
C1938      C1961   1.592       .  S
C1938      C2000   1.593       .  S
C1938      C2168   1.593       .  S
O1939     Cr1957   2.048       .  S
O1939      C1947   1.270       .  A
O1940     Cr1957   1.978       .  S
O1940      C1941   1.266       .  A
C1941      O1942   1.278       .  A
O1942     Cr1958   2.054       .  S
O1943     Cr1958   2.049       .  S
O1943      C1944   1.275       .  A
C1944      O1945   1.264       .  A
O1945     Cr1959   2.042       .  S
O1946     Cr1959   2.016       .  S
O1946      C1947   1.259       .  A
O1948     Cr1957   2.056       .  S
O1948      C1956   1.277       .  A
O1949     Cr1957   2.057       .  S
O1949      C1950   1.284       .  A
C1950      O1951   1.270       .  A
O1951     Cr1958   2.029       .  S
O1952     Cr1958   2.035       .  S
O1952      C1953   1.268       .  A
C1953      O1954   1.254       .  A
O1954     Cr1959   2.006       .  S
O1955     Cr1959   2.023       .  S
O1955      C1956   1.261       .  A
Cr1957     O1960   1.793       .  S
Cr1958     O1960   1.799       .  S
Cr1959     O1960   1.769       .  S
C1961      C1962   1.417       .  A
C1961      C1966   1.424       .  A
C1962      H1967   1.078       .  S
C1963      C1964   1.419       .  A
C1963      C1970   1.442       .  S
C1964      C1965   1.402       .  A
C1965      H1968   1.067       .  S
C1966      C1969   1.428       .  S
C1969      N1971   1.157       .  T
C1970      N1972   1.156       .  T
C1973      C1974   1.405       .  A
C1973      C1978   1.435       .  A
C1974      H1979   1.078       .  S
C1975      C1976   1.431       .  A
C1975      C1982   1.438       .  S
C1976      C1977   1.419       .  A
C1977      H1980   1.080       .  S
C1978      C1981   1.433       .  S
C1981      N1983   1.159       .  T
C1982      N1984   1.157   1_655  T
C1985      C1986   1.412       .  A
C1985      C1990   1.436       .  A
C1986      H1991   1.084       .  S
C1987      C1988   1.441       .  A
C1987      C1994   1.433       .  S
C1988      C1989   1.405       .  A
C1989      H1992   1.075       .  S
C1990      C1993   1.430       .  S
C1993      N1995   1.155       .  T
C1994      N1996   1.158       .  T
C1997      C1998   1.423       .  A
C1997      C2002   1.431       .  A
C1998      H2003   1.068       .  S
C1999      C2000   1.418       .  A
C1999      C2006   1.432       .  S
C2000      C2001   1.402       .  A
C2001      H2004   1.070       .  S
C2002      C2005   1.444       .  S
C2005      N2007   1.158       .  T
C2006      N2008   1.154       .  T
C2009      C2010   1.414       .  A
C2009      C2014   1.422       .  A
C2010      H2015   1.074       .  S
C2011      C2012   1.429       .  A
C2011      C2018   1.440       .  S
C2012      C2013   1.404       .  A
C2013      H2016   1.075       .  S
C2014      C2017   1.421       .  S
C2017      N2019   1.152       .  T
C2018      N2020   1.158       .  T
C2021      C2022   1.412       .  A
C2021      C2026   1.435       .  A
C2022      H2027   1.067       .  S
C2023      C2024   1.399       .  A
C2023      C2030   1.443       .  S
C2024      C2025   1.416       .  A
C2025      H2028   1.077       .  S
C2026      C2029   1.430       .  S
C2029      N2031   1.157       .  T
C2030      N2032   1.157       .  T
C2033      C2034   1.417       .  A
C2033      C2038   1.443       .  A
C2034      H2039   1.075       .  S
C2035      C2036   1.422       .  A
C2035      C2042   1.428       .  S
C2036      C2037   1.384       .  A
C2037      H2040   1.071       .  S
C2038      C2041   1.440       .  S
C2041      N2043   1.154       .  T
C2042      N2044   1.153       .  T
C2045      C2046   1.397       .  A
C2045      C2050   1.421       .  A
C2046      C2047   1.416       .  A
C2046      H2051   1.084       .  S
C2047      C2048   1.444       .  A
C2047      C2054   1.426       .  S
C2048      C2049   1.408       .  A
C2049      C2050   1.394       .  A
C2049      H2052   1.062       .  S
C2050      C2053   1.440       .  S
C2053      N2055   1.154       .  T
C2054      N2056   1.155       .  T
C2057      C2058   1.399       .  A
C2057      C2062   1.432       .  A
C2058      H2063   1.089       .  S
C2059      C2060   1.453       .  A
C2059      C2066   1.430       .  S
C2060      C2061   1.402       .  A
C2061      H2064   1.082       .  S
C2062      C2065   1.413       .  S
C2065      N2067   1.147       .  T
C2066      N2068   1.155       .  T
C2069      C2070   1.417       .  A
C2069      C2074   1.401       .  A
C2070      H2075   1.068       .  S
C2071      C2072   1.422       .  A
C2071      C2078   1.433       .  S
C2072      C2073   1.423       .  A
C2073      H2076   1.064       .  S
C2074      C2077   1.419       .  S
C2077      N2079   1.148       .  T
C2078      N2080   1.153       .  T
C2081      C2082   1.409       .  A
C2081      C2086   1.415       .  A
C2082      C2083   1.400       .  A
C2082      H2087   1.074       .  S
C2083      C2084   1.443       .  A
C2083      C2090   1.438       .  S
C2084      C2085   1.421       .  A
C2085      C2086   1.434       .  A
C2085      H2088   1.077       .  S
C2086      C2089   1.431       .  S
C2089      N2091   1.155       .  T
C2090      N2092   1.154       .  T
C2093      C2094   1.387       .  A
C2093      C2098   1.423       .  A
C2094      H2099   1.078       .  S
C2095      C2096   1.448       .  A
C2095      C2102   1.435       .  S
C2096      C2097   1.428       .  A
C2097      H2100   1.081       .  S
C2098      C2101   1.404       .  S
C2101      N2103   1.147       .  T
C2102      N2104   1.154       .  T
C2105      C2106   1.382       .  A
C2105      C2110   1.428       .  A
C2106      H2111   1.067       .  S
C2107      C2108   1.421       .  A
C2107      C2114   1.422       .  S
C2108      C2109   1.413       .  A
C2109      H2112   1.067       .  S
C2110      C2113   1.427       .  S
C2113      N2115   1.153       .  T
C2114      N2116   1.150       .  T
C2117      C2118   1.412       .  A
C2117      C2122   1.422       .  A
C2118      H2123   1.063       .  S
C2119      C2120   1.439       .  A
C2119      C2126   1.444       .  S
C2120      C2121   1.413       .  A
C2121      H2124   1.083       .  S
C2122      C2125   1.434       .  S
C2125      N2127   1.154       .  T
C2126      N2128   1.158       .  T
C2129      C2130   1.410       .  A
C2129      C2134   1.415       .  A
C2130      C2131   1.391       .  A
C2130      H2135   1.072       .  S
C2131      C2132   1.418       .  A
C2131      C2138   1.437       .  S
C2132      C2133   1.411       .  A
C2133      C2134   1.428       .  A
C2133      H2136   1.080       .  S
C2134      C2137   1.413       .  S
C2137      N2139   1.149       .  T
C2138      N2140   1.154       .  T
C2141      C2142   1.402       .  A
C2141      C2146   1.422       .  A
C2142      H2147   1.081       .  S
C2143      C2144   1.437       .  A
C2143      C2150   1.409       .  S
C2144      C2145   1.403       .  A
C2145      H2148   1.049       .  S
C2146      C2149   1.417       .  S
C2149      N2151   1.145       .  T
C2150      N2152   1.148       .  T
C2153      C2154   1.416       .  A
C2153      C2158   1.433       .  A
C2154      H2159   1.070       .  S
C2155      C2156   1.422       .  A
C2155      C2162   1.431       .  S
C2156      C2157   1.400       .  A
C2157      H2160   1.089       .  S
C2158      C2161   1.438       .  S
C2161      N2163   1.158       .  T
C2162      N2164   1.154       .  T
C2165      C2166   1.396       .  A
C2165      C2170   1.432       .  A
C2166      C2167   1.404       .  A
C2166      H2171   1.077       .  S
C2167      C2168   1.421       .  A
C2167      C2174   1.446       .  S
C2168      C2169   1.409       .  A
C2169      C2170   1.413       .  A
C2169      H2172   1.063       .  S
C2170      C2173   1.434       .  S
C2173      N2175   1.154       .  T
C2174      N2176   1.157       .  T
