geometry optimzed in LAMMPS
_audit_creation_date              2020-11-30 
_audit_creation_method            'lammps2cif' 
_symmetry_space_group_name_H-M    'P1' 
_symmetry_Int_Tables_number       1 
_symmetry_cell_setting            triclinic 
loop_ 
_symmetry_equiv_pos_as_xyz 
  x,y,z 
_cell_length_a                    47.37084633 
_cell_length_b                    47.21047302516668 
_cell_length_c                    47.2848278205278 
_cell_angle_alpha                 89.56040537659703 
_cell_angle_beta                  90.15076013826327 
_cell_angle_gamma                 90.05859175481304 
loop_ 
_atom_site_label 
_atom_site_type_symbol 
_atom_site_fract_x 
_atom_site_fract_y 
_atom_site_fract_z 
_atom_site_charge 
In1        In  0.01267684  0.77852427  0.11363521     1.36900
C2          C  0.96326951  0.75442783  0.12636232     0.79600
O3          O  0.03309871  0.73555368  0.11620078    -0.58900
O4          O  0.04535717  0.76667090  0.14607265    -0.49800
C5          C  0.03938770  0.78733177  0.06460487     0.72200
O6          O  0.02187837  0.76741836  0.06774998    -0.44600
C7          C  0.00361153  0.82561132  0.14212604     0.76900
O8          O  0.96664943  0.76804176  0.10337439    -0.56500
O9          O  0.02742972  0.81375852  0.14136479    -0.46600
O10         O  0.98493018  0.75266197  0.14167452    -0.52900
C11         C  0.04788443  0.74162715  0.13747046     0.87100
O12         O  0.03966290  0.80480827  0.08450639    -0.54800
O13         O  0.98520725  0.81528122  0.12581601    -0.58100
In14       In  0.98794113  0.87335019  0.21174486     1.36900
C15         C  0.03821821  0.86256076  0.23446100     0.79600
O16         O  0.96947168  0.86938122  0.25538764    -0.58900
O17         O  0.95786766  0.83900310  0.22451208    -0.49800
C18         C  0.95818542  0.92107148  0.20361763     0.72200
O19         O  0.97680780  0.91913418  0.22266702    -0.44600
C20         C  0.99681660  0.84636347  0.16383093     0.76900
O21         O  0.03288894  0.88651715  0.22332863    -0.56500
O22         O  0.97362155  0.84535355  0.17678954    -0.46600
O23         O  0.01813809  0.84517313  0.23411630    -0.52900
C24         C  0.95567975  0.84736914  0.24959765     0.87100
O25         O  0.95774542  0.90053637  0.18688142    -0.54800
O26         O  0.01465418  0.86364853  0.17363488    -0.58100
In27       In  0.79048195  0.00193642  0.11447260     1.36900
C28         C  0.76600735  0.95222652  0.12360780     0.79600
O29         O  0.82736425  0.97306683  0.12409959    -0.58900
O30         O  0.82688810  0.01434151  0.14185352    -0.49800
C31         C  0.79677083  0.03185193  0.06646042     0.72200
O32         O  0.77795007  0.01312508  0.06907804    -0.44600
C33         C  0.75461427  0.03474399  0.14203824     0.76900
O34         O  0.77848625  0.95748965  0.10047896    -0.56500
O35         O  0.77963426  0.03096354  0.15020312    -0.46600
O36         O  0.76582617  0.97216537  0.14105100    -0.52900
C37         C  0.83838069  0.99029495  0.14120945     0.87100
O38         O  0.81420258  0.03242977  0.08654256    -0.54800
O39         O  0.74802268  0.02243929  0.11945890    -0.58100
In40       In  0.88701246  0.97098188  0.21022709     1.36900
C41         C  0.87693592  0.02060551  0.23452544     0.79600
O42         O  0.87641017  0.99959235  0.17329860    -0.58900
O43         O  0.85935471  0.95791910  0.17389422    -0.49800
C44         C  0.93559700  0.94259199  0.20328368     0.72200
O45         O  0.93307998  0.96171600  0.22156858    -0.44600
C46         C  0.86069114  0.93817887  0.24773663     0.76900
O47         O  0.89946866  0.01645735  0.22073976    -0.56500
O48         O  0.85237856  0.94075674  0.22252700    -0.46600
O49         O  0.86054849  0.99971090  0.23595010    -0.52900
C50         C  0.85960689  0.98205687  0.16230411     0.87100
O51         O  0.91488180  0.94066997  0.18674269    -0.54800
O52         O  0.88305839  0.95133294  0.25355650    -0.58100
In53       In  0.11063819  0.78010640  0.01584271     1.36900
C54         C  0.11990250  0.75399116  0.96706215     0.79600
O55         O  0.12299753  0.81498461  0.98554486    -0.58900
O56         O  0.13712136  0.81769948  0.02813340    -0.49800
C57         C  0.06155511  0.78751065  0.04281296     0.72200
O58         O  0.06527398  0.76750436  0.02575292    -0.44600
C59         C  0.13771813  0.74587458  0.05160562     0.76900
O60         O  0.09808631  0.76904915  0.97060880    -0.56500
O61         O  0.14639024  0.77041927  0.04571977    -0.46600
O62         O  0.13562567  0.75160548  0.98838989    -0.52900
C63         C  0.13847887  0.82746028  0.00326703     0.87100
O64         O  0.08114210  0.80550697  0.04296423    -0.54800
O65         O  0.11480858  0.73901831  0.03999743    -0.58100
In66       In  0.20693635  0.87675228  0.98301370     1.36900
C67         C  0.23061937  0.87041472  0.03364319     0.79600
O68         O  0.17025090  0.86619277  0.01181824    -0.58900
O69         O  0.17149591  0.84766441  0.97102836    -0.49800
C70         C  0.20082409  0.92363390  0.95058391     0.72200
O71         O  0.21899492  0.92204869  0.97005913    -0.44600
C72         C  0.24370856  0.84789251  0.95258173     0.76900
O73         O  0.21460251  0.89129680  0.02830381    -0.56500
O74         O  0.21869197  0.83961231  0.95618613    -0.46600
O75         O  0.23506418  0.85422266  0.01319387    -0.52900
C76         C  0.15975094  0.84850007  0.99489700     0.87100
O77         O  0.18383335  0.90316129  0.95030675    -0.54800
O78         O  0.24984782  0.87110764  0.96397047    -0.58100
In79       In  0.11129685  0.00725343  0.78513564     1.36900
C80         C  0.12084798  0.95796112  0.75974673     0.79600
O81         O  0.11166384  0.02921767  0.74258118    -0.58900
O82         O  0.14486225  0.03788369  0.77159140    -0.49800
C83         C  0.06397805  0.03603676  0.79664539     0.72200
O84         O  0.06464515  0.01737229  0.77768213    -0.44600
C85         C  0.14093966  0.99493634  0.83140143     0.76900
O86         O  0.09842435  0.96203955  0.77373223    -0.56500
O87         O  0.14149425  0.01903639  0.81973502    -0.46600
O88         O  0.13707412  0.97898553  0.75811712    -0.52900
C89         C  0.13439491  0.04217969  0.74744067     0.87100
O90         O  0.08586948  0.03703785  0.81167318    -0.54800
O91         O  0.12299984  0.97799582  0.82127483    -0.58100
In92       In  0.21045440  0.97344381  0.87855815     1.36900
C93         C  0.23664056  0.02257885  0.86778917     0.79600
O94         O  0.25184627  0.95015391  0.87638581    -0.58900
O95         O  0.22208810  0.94405068  0.84331668    -0.49800
C96         C  0.20164472  0.94489340  0.92737449     0.72200
O97         O  0.22012124  0.96407527  0.92522395    -0.44600
C98         C  0.16252939  0.98623649  0.85198762     0.76900
O99         O  0.22476741  0.01782635  0.89136560    -0.56500
O100        O  0.17312890  0.96176387  0.85169101    -0.46600
O101        O  0.23565494  0.00230483  0.85072354    -0.52900
C102        C  0.24611727  0.93840810  0.85327067     0.87100
O103        O  0.18587666  0.94290008  0.90603545    -0.54800
O104        O  0.17453731  0.00336667  0.86848946    -0.58100
In105      In  0.78771064  0.10360217  0.01707421     1.36900
C106        C  0.76249539  0.11402024  0.96773358     0.79600
O107        O  0.74558975  0.10790107  0.03855759    -0.58900
O108        O  0.77752482  0.13787045  0.04833176    -0.49800
C109        C  0.79608887  0.05443159  0.04472788     0.72200
O110        O  0.77634502  0.05751362  0.02703876    -0.44600
C111        C  0.83473120  0.13173895  0.00503402     0.76900
O112        O  0.77634931  0.09139768  0.97185768    -0.56500
O113        O  0.82421499  0.13097851  0.02948092    -0.46600
O114        O  0.76096847  0.13011926  0.98872576    -0.52900
C115        C  0.75244340  0.12980057  0.05195520     0.87100
O116        O  0.81323971  0.07474087  0.04526208    -0.54800
O117        O  0.82311134  0.11555306  0.98735998    -0.58100
In118      In  0.88389634  0.20038612  0.98571246     1.36900
C119        C  0.87413884  0.22661351  0.03428852     0.79600
O120        O  0.88142631  0.24161404  0.96160887    -0.58900
O121        O  0.84846024  0.21159043  0.95608192    -0.49800
C122        C  0.93312688  0.19230754  0.95935204     0.72200
O123        O  0.92997164  0.21141842  0.97752672    -0.44600
C124        C  0.85584728  0.15301679  0.99713748     0.76900
O125        O  0.89559126  0.21094529  0.03126058    -0.56500
O126        O  0.85680000  0.16365589  0.97262078    -0.46600
O127        O  0.85885003  0.22926370  0.01268916    -0.52900
C128        C  0.85817717  0.23572435  0.95011094     0.87100
O129        O  0.91267212  0.17541942  0.95757420    -0.54800
O130        O  0.87165254  0.16476506  0.01507531    -0.58100
In131      In  0.01292341  0.10665117  0.79340756     1.36900
C132        C  0.96256989  0.11600769  0.77025299     0.79600
O133        O  0.98585653  0.11644875  0.83113867    -0.58900
O134        O  0.02745288  0.13344693  0.82947777    -0.49800
C135        C  0.04207658  0.05815174  0.79848484     0.72200
O136        O  0.02232626  0.06103615  0.78078605    -0.44600
C137        C  0.04459596  0.13488024  0.75673751     0.76900
O138        O  0.96780296  0.09317052  0.78351091    -0.56500
O139        O  0.04089674  0.14315333  0.78167091    -0.46600
O140        O  0.98284636  0.13310224  0.76863238    -0.52900
C141        C  0.00380156  0.13318438  0.84159990     0.87100
O142        O  0.04420903  0.07828055  0.81562509    -0.54800
O143        O  0.03284780  0.11179639  0.75064321    -0.58100
In144      In  0.98495871  0.20137814  0.89065740     1.36900
C145        C  0.03347227  0.22851534  0.88207502     0.79600
O146        O  0.01477483  0.16654818  0.87794555    -0.58900
O147        O  0.97195723  0.16429083  0.86447886    -0.49800
C148        C  0.95596214  0.19243576  0.93829738     0.72200
O149        O  0.97408098  0.21192945  0.93626101    -0.44600
C150        C  0.95055200  0.23647022  0.86347642     0.76900
O151        O  0.02999773  0.21285740  0.90371387    -0.56500
O152        O  0.95694039  0.21249496  0.85397372    -0.46600
O153        O  0.01230503  0.23072729  0.86616354    -0.52900
C154        C  0.99653049  0.15426375  0.86287685     0.87100
O155        O  0.95597505  0.17539847  0.91801843    -0.54800
O156        O  0.96086231  0.24222404  0.88730092    -0.58100
C157        C  0.32235912  0.63410290  0.70061044     0.88500
C158        C  0.29803571  0.63988810  0.72117792    -0.51800
C159        C  0.28745005  0.61593959  0.73349537     0.11400
C160        C  0.30244889  0.58858022  0.72453885     0.22300
C161        C  0.34467514  0.61783246  0.71767757    -0.52500
C162        C  0.33419064  0.59383183  0.73014951     0.11500
C163        C  0.31033820  0.61248604  0.67972120    -0.52000
C164        C  0.29966844  0.58890089  0.69225110     0.12100
H165        H  0.28867275  0.66066706  0.72401775     0.16600
H166        H  0.29382272  0.56907082  0.73462001     0.02300
H167        H  0.36674493  0.62399907  0.71884847     0.16900
H168        H  0.30885027  0.61608120  0.65710941     0.16700
C169        C  0.16433214  0.58631882  0.77658836     0.88500
C170        C  0.17803780  0.56862805  0.80038809    -0.51800
C171        C  0.19927498  0.58245710  0.81408530     0.11400
C172        C  0.20484186  0.61247855  0.80303670     0.22300
C173        C  0.15467788  0.61375793  0.79085694    -0.52500
C174        C  0.17603177  0.62735029  0.80476154     0.11500
C175        C  0.18911438  0.59492945  0.75738482    -0.52000
C176        C  0.21039814  0.60843611  0.77140839     0.12100
H177        H  0.17224712  0.54683313  0.80518990     0.16600
H178        H  0.22219857  0.62351548  0.81439253     0.02300
H179        H  0.13295600  0.62110870  0.79090613     0.16900
H180        H  0.19044740  0.58932701  0.73518505     0.16700
C181        C  0.16509214  0.76817123  0.59043373     0.88500
C182        C  0.15470647  0.78113369  0.61825810    -0.51800
C183        C  0.17555992  0.79502055  0.63267477     0.11400
C184        C  0.20457202  0.79447824  0.61821608     0.22300
C185        C  0.17839987  0.79298693  0.57398084    -0.52500
C186        C  0.19906419  0.80661631  0.58864244     0.11500
C187        C  0.19022136  0.74915816  0.59864297    -0.52000
C188        C  0.21094200  0.76312385  0.61306217     0.12100
H189        H  0.13285262  0.78059277  0.62514182     0.16600
H190        H  0.22150782  0.80580411  0.62991722     0.02300
H191        H  0.17276623  0.79855871  0.55234211     0.16900
H192        H  0.19213097  0.72717704  0.59229053     0.16700
C193        C  0.32268755  0.69284170  0.64179516     0.88500
C194        C  0.34541144  0.71003173  0.62639174    -0.51800
C195        C  0.33560549  0.72266513  0.60223623     0.11400
C196        C  0.30408398  0.71714875  0.59592375     0.22300
C197        C  0.29813050  0.71340432  0.64694875    -0.52500
C198        C  0.28823478  0.72590683  0.62278059     0.11500
C199        C  0.31131780  0.67207061  0.61967837    -0.52000
C200        C  0.30136219  0.68484437  0.59588347     0.12100
H201        H  0.36730129  0.71113551  0.63321123     0.16600
H202        H  0.29606563  0.72741075  0.57624581     0.02300
H203        H  0.28810725  0.71606009  0.66740019     0.16900
H204        H  0.30980002  0.64938913  0.62301274     0.16700
C205        C  0.33482700  0.89071156  0.76669603     0.88500
C206        C  0.32157797  0.90776706  0.79081548    -0.51800
C207        C  0.30032581  0.89384063  0.80437163     0.11400
C208        C  0.29438547  0.86416018  0.79292699     0.22300
C209        C  0.34444452  0.86281800  0.78038725    -0.52500
C210        C  0.32320616  0.84898666  0.79423262     0.11500
C211        C  0.30975453  0.88302802  0.74746261    -0.52000
C212        C  0.28841532  0.86933175  0.76136714     0.12100
H213        H  0.32750726  0.92942952  0.79576458     0.16600
H214        H  0.27707582  0.85295929  0.80426581     0.02300
H215        H  0.36618970  0.85552310  0.78048207     0.16900
H216        H  0.30808471  0.88981568  0.72551614     0.16700
C217        C  0.16393193  0.89609220  0.72104317     0.88500
C218        C  0.17829498  0.91351863  0.69754098    -0.51800
C219        C  0.19934538  0.89934788  0.68413393     0.11400
C220        C  0.20407776  0.86913999  0.69509468     0.22300
C221        C  0.15374805  0.86890570  0.70649740    -0.52500
C222        C  0.17494156  0.85488875  0.69286839     0.11500
C223        C  0.18834395  0.88682270  0.74059428    -0.52000
C224        C  0.20945391  0.87286381  0.72684109     0.12100
H225        H  0.17313851  0.93548709  0.69281147     0.16600
H226        H  0.22127845  0.85780542  0.68392010     0.02300
H227        H  0.13186621  0.86201529  0.70611202     0.16900
H228        H  0.18969327  0.89250053  0.76277578     0.16700
C229        C  0.31955996  0.79378759  0.85845221     0.88500
C230        C  0.34275003  0.77840341  0.87551915    -0.51800
C231        C  0.33289149  0.76636450  0.90007921     0.11400
C232        C  0.30096474  0.77071182  0.90490368     0.22300
C233        C  0.29626756  0.77177114  0.85360588    -0.52500
C234        C  0.28633446  0.75991944  0.87796968     0.11500
C235        C  0.30665399  0.81500084  0.87908728    -0.52000
C236        C  0.29685177  0.80285081  0.90324377     0.12100
H237        H  0.36479481  0.77787674  0.86930794     0.16600
H238        H  0.29274615  0.76103779  0.92475492     0.02300
H239        H  0.28690033  0.76768285  0.83302822     0.16900
H240        H  0.30410545  0.83743270  0.87435179     0.16700
C241        C  0.16349976  0.71517233  0.90606033     0.88500
C242        C  0.15399536  0.70136659  0.87827752    -0.51800
C243        C  0.17546203  0.68770272  0.86471408     0.11400
C244        C  0.20415242  0.68926213  0.87988883     0.22300
C245        C  0.17708020  0.69105552  0.92339078    -0.52500
C246        C  0.19838518  0.67765435  0.90958304     0.11500
C247        C  0.18834569  0.73462142  0.89806732    -0.52000
C248        C  0.20970082  0.72084993  0.88457502     0.12100
H249        H  0.13230111  0.70128880  0.87077596     0.16600
H250        H  0.22158417  0.67813410  0.86886280     0.02300
H251        H  0.17123659  0.68591461  0.94504820     0.16900
H252        H  0.18972240  0.75672525  0.90416557     0.16700
C253        C  0.59179133  0.71696187  0.33734180     0.88500
C254        C  0.57604006  0.69237100  0.32308607    -0.51800
C255        C  0.59099518  0.68010337  0.30187782     0.11400
C256        C  0.62009471  0.69323476  0.29690455     0.22300
C257        C  0.62000128  0.70431839  0.34730289    -0.52500
C258        C  0.63473258  0.69190470  0.32591849     0.11500
C259        C  0.59919266  0.73730688  0.31285365    -0.52000
C260        C  0.61390092  0.72463561  0.29162405     0.12100
H261        H  0.55460523  0.68609606  0.32842096     0.16600
H262        H  0.63205642  0.68299065  0.27955256     0.02300
H263        H  0.62703709  0.70413073  0.36918745     0.16900
H264        H  0.59187715  0.75908561  0.31158915     0.16700
C265        C  0.59634949  0.76415292  0.16515510     0.88500
C266        C  0.57969709  0.78916926  0.17736780    -0.51800
C267        C  0.59338351  0.80260727  0.19879780     0.11400
C268        C  0.62232109  0.79012176  0.20600780     0.22300
C269        C  0.62491404  0.77669213  0.15624510    -0.52500
C270        C  0.63839152  0.79032659  0.17782570     0.11500
C271        C  0.60268347  0.74505630  0.19092566    -0.52000
C272        C  0.61614297  0.75888731  0.21236240     0.12100
H273        H  0.55845999  0.79481911  0.17064468     0.16600
H274        H  0.63328424  0.80130792  0.22350670     0.02300
H275        H  0.63307070  0.77594248  0.13481442     0.16900
H276        H  0.59548094  0.72326885  0.19279428     0.16700
C277        C  0.77135983  0.58558464  0.16151493     0.88500
C278        C  0.78418400  0.61388939  0.15172868    -0.51800
C279        C  0.79722469  0.62822273  0.17310519     0.11400
C280        C  0.79631098  0.61304368  0.20202089     0.22300
C281        C  0.79592224  0.56925644  0.17529626    -0.52500
C282        C  0.80886010  0.58373664  0.19651477     0.11500
C283        C  0.75173098  0.59290129  0.18629951    -0.52000
C284        C  0.76499220  0.60710679  0.20760778     0.12100
H285        H  0.78393671  0.62131733  0.12993197     0.16600
H286        H  0.80707390  0.62462435  0.21938151     0.02300
H287        H  0.80176785  0.54778391  0.16959808     0.16900
H288        H  0.72986100  0.58606993  0.18757065     0.16700
C289        C  0.69299139  0.63184192  0.31885167     0.88500
C290        C  0.70966352  0.61567381  0.34170100    -0.51800
C291        C  0.72239759  0.59178051  0.33171032     0.11400
C292        C  0.71741993  0.58656308  0.29986324     0.22300
C293        C  0.71399212  0.63784074  0.29481735    -0.52500
C294        C  0.72654800  0.61399480  0.28465971     0.11500
C295        C  0.67239953  0.61007883  0.30653580    -0.52000
C296        C  0.68525821  0.58654452  0.29647333     0.12100
H297        H  0.71039964  0.62186976  0.36376694     0.16600
H298        H  0.72767667  0.56715332  0.29158997     0.02300
H299        H  0.71685170  0.65862505  0.28521111     0.16900
H300        H  0.64982038  0.61369723  0.30443995     0.16700
C301        C  0.85621638  0.79712096  0.32232283     0.88500
C302        C  0.85074198  0.77662943  0.29780448    -0.51800
C303        C  0.87464355  0.76385840  0.28812347     0.11400
C304        C  0.90158102  0.77228968  0.30418346     0.22300
C305        C  0.87127304  0.77960779  0.34531451    -0.52500
C306        C  0.89515456  0.76661595  0.33571828     0.11500
C307        C  0.87864087  0.81769690  0.31100472    -0.52000
C308        C  0.90224604  0.80464110  0.30141950     0.12100
H309        H  0.83023124  0.77394313  0.28783673     0.16600
H310        H  0.92102638  0.76184550  0.29629693     0.02300
H311        H  0.86429503  0.77835654  0.36715442     0.16900
H312        H  0.87548690  0.84045666  0.30928138     0.16700
C313        C  0.85728059  0.68695830  0.17923144     0.88500
C314        C  0.85169619  0.70816401  0.20302255    -0.51800
C315        C  0.87562467  0.72057189  0.21323973     0.11400
C316        C  0.90281912  0.71113639  0.19826576     0.22300
C317        C  0.87342558  0.70354609  0.15632031    -0.52500
C318        C  0.89743883  0.71620882  0.16632671     0.11500
C319        C  0.87882028  0.66616828  0.19175587    -0.52000
C320        C  0.90246704  0.67882441  0.20185846     0.12100
H321        H  0.83101696  0.71145164  0.21232958     0.16600
H322        H  0.92230871  0.72126555  0.20658509     0.02300
H323        H  0.86700768  0.70445221  0.13426088     0.16900
H324        H  0.87496589  0.64354832  0.19398202     0.16700
C325        C  0.77043736  0.89854610  0.33845938     0.88500
C326        C  0.78302395  0.87035605  0.34894076    -0.51800
C327        C  0.79614199  0.85562257  0.32795988     0.11400
C328        C  0.79547258  0.87022368  0.29880809     0.22300
C329        C  0.79520386  0.91450681  0.32463552    -0.52500
C330        C  0.80815479  0.89958230  0.30382666     0.11500
C331        C  0.75090562  0.89080163  0.31360490    -0.52000
C332        C  0.76423794  0.87604206  0.29281892     0.12100
H333        H  0.78261683  0.86332634  0.37086441     0.16600
H334        H  0.80626621  0.85826392  0.28179371     0.02300
H335        H  0.80117483  0.93604958  0.33000642     0.16900
H336        H  0.72909475  0.89771131  0.31189745     0.16700
C337        C  0.72645051  0.89111012  0.16631741     0.88500
C338        C  0.71336162  0.86287526  0.15725443    -0.51800
C339        C  0.69939400  0.84942567  0.17874558     0.11400
C340        C  0.69989323  0.86523658  0.20708090     0.22300
C341        C  0.70186608  0.90825830  0.17864473    -0.52500
C342        C  0.68810860  0.89460798  0.20002440     0.11500
C343        C  0.74525766  0.88410751  0.19198434    -0.52000
C344        C  0.73114465  0.87080454  0.21344635     0.12100
H345        H  0.71389550  0.85498768  0.13574056     0.16600
H346        H  0.68844895  0.85431135  0.22454223     0.02300
H347        H  0.69671298  0.92974300  0.17201364     0.16900
H348        H  0.76702702  0.89111921  0.19391438     0.16700
C349        C  0.69740305  0.31756570  0.64099174     0.88500
C350        C  0.71734648  0.29260591  0.64686237    -0.51800
C351        C  0.72904234  0.28162086  0.62305718     0.11400
C352        C  0.72026922  0.29698239  0.59562451     0.22300
C353        C  0.71488392  0.33951867  0.62454272    -0.52500
C354        C  0.72678100  0.32870195  0.60057796     0.11500
C355        C  0.67601636  0.30616680  0.61945623    -0.52000
C356        C  0.68798565  0.29510853  0.59598515     0.12100
H357        H  0.72017625  0.28309272  0.66768334     0.16600
H358        H  0.72988665  0.28803343  0.57622731     0.02300
H359        H  0.71674906  0.36159431  0.63058127     0.16900
H360        H  0.65344902  0.30537946  0.62301180     0.16700
C361        C  0.79796952  0.16705739  0.64284039     0.88500
C362        C  0.77894885  0.19277233  0.64834752    -0.51800
C363        C  0.76700887  0.20373140  0.62435988     0.11400
C364        C  0.77471512  0.18771472  0.59729878     0.22300
C365        C  0.77947846  0.14552125  0.62743589    -0.52500
C366        C  0.76738885  0.15634737  0.60345743     0.11500
C367        C  0.81921532  0.17753491  0.62063710    -0.52000
C368        C  0.80703345  0.18864398  0.59705625     0.12100
H369        H  0.77675316  0.20256486  0.66894549     0.16600
H370        H  0.76490542  0.19659639  0.57777538     0.02300
H371        H  0.77707089  0.12359552  0.63415905     0.16900
H372        H  0.84185160  0.17784441  0.62385870     0.16700
C373        C  0.59275437  0.15746174  0.77730346     0.88500
C374        C  0.62002007  0.14735769  0.79173666    -0.51800
C375        C  0.63379234  0.16851028  0.80570214     0.11400
C376        C  0.61917101  0.19756146  0.80404202     0.22300
C377        C  0.57526198  0.17110399  0.80089293    -0.52500
C378        C  0.58913921  0.19214287  0.81475217     0.11500
C379        C  0.60157480  0.18245908  0.75815448    -0.52000
C380        C  0.61529505  0.20351674  0.77236928     0.12100
H381        H  0.62734457  0.12556293  0.79152784     0.16600
H382        H  0.63034515  0.21472787  0.81553639     0.02300
H383        H  0.55344157  0.16551747  0.80534038     0.16900
H384        H  0.59614416  0.18402991  0.73586398     0.16700
C385        C  0.64062813  0.31611024  0.70083881     0.88500
C386        C  0.62430010  0.33833590  0.71762777    -0.51800
C387        C  0.60076886  0.32756124  0.73046165     0.11400
C388        C  0.59602658  0.29557385  0.72556581     0.22300
C389        C  0.64720038  0.29195292  0.72183245    -0.52500
C390        C  0.62369619  0.28103347  0.73454973     0.11500
C391        C  0.61887379  0.30340151  0.68040847    -0.52000
C392        C  0.59578158  0.29242664  0.69336888     0.12100
H393        H  0.62997597  0.36062438  0.71817691     0.16600
H394        H  0.57691045  0.28669989  0.73597523     0.02300
H395        H  0.66808971  0.28283611  0.72455287     0.16900
H396        H  0.62197882  0.30179141  0.65779247     0.16700
C397        C  0.77242981  0.32630135  0.90029655     0.88500
C398        C  0.79506305  0.31181802  0.91874469    -0.51800
C399        C  0.80853640  0.29020260  0.90549970     0.11400
C400        C  0.79838786  0.28500064  0.87524881     0.22300
C401        C  0.78793261  0.33568876  0.87335386    -0.52500
C402        C  0.80154919  0.31386490  0.86036687     0.11500
C403        C  0.75274795  0.30210330  0.89121579    -0.52000
C404        C  0.76651555  0.28040533  0.87826592     0.12100
H405        H  0.79936469  0.31751829  0.94056793     0.16600
H406        H  0.80955078  0.26729634  0.86467214     0.02300
H407        H  0.78897360  0.35749406  0.86592218     0.16900
H408        H  0.73044498  0.30124131  0.89648028     0.16700
C409        C  0.72425659  0.15736664  0.90502285     0.88500
C410        C  0.70078445  0.17210219  0.92180049    -0.51800
C411        C  0.68757955  0.19312517  0.90700008     0.11400
C412        C  0.69876650  0.19757445  0.87700531     0.22300
C413        C  0.70979150  0.14701600  0.87784321    -0.52500
C414        C  0.69636895  0.16829360  0.86333069     0.11500
C415        C  0.74397689  0.18154406  0.89564108    -0.52000
C416        C  0.73044821  0.20261182  0.88106008     0.12100
H417        H  0.69567034  0.16695919  0.94364522     0.16600
H418        H  0.68779200  0.21483211  0.86521215     0.02300
H419        H  0.70903443  0.12496865  0.87148899     0.16900
H420        H  0.76612088  0.18275665  0.90155815     0.16700
C421        C  0.90360894  0.32406604  0.77277330     0.88500
C422        C  0.87637073  0.33390366  0.78713486    -0.51800
C423        C  0.86317223  0.31271743  0.80183016     0.11400
C424        C  0.87820312  0.28391383  0.80084301     0.22300
C425        C  0.92162273  0.31106825  0.79665937    -0.52500
C426        C  0.90815062  0.29005240  0.81121704     0.11500
C427        C  0.89504591  0.29866143  0.75444644    -0.52000
C428        C  0.88198586  0.27753902  0.76937355     0.12100
H429        H  0.86876649  0.35560125  0.78651569     0.16600
H430        H  0.86746698  0.26672065  0.81292041     0.02300
H431        H  0.94335504  0.31714949  0.80091910     0.16900
H432        H  0.90044713  0.29677588  0.73222708     0.16700
C433        C  0.85629839  0.16445113  0.70119616     0.88500
C434        C  0.87185127  0.14197240  0.71887169    -0.51800
C435        C  0.89595502  0.15218739  0.73115162     0.11400
C436        C  0.90195282  0.18378535  0.72478725     0.22300
C437        C  0.85099025  0.18933673  0.72117868    -0.52500
C438        C  0.87496818  0.19956076  0.73336266     0.11500
C439        C  0.87830500  0.17558246  0.68010059    -0.52000
C440        C  0.90194891  0.18600740  0.69244001     0.12100
H441        H  0.86508410  0.12004560  0.72068940     0.16600
H442        H  0.92150346  0.19218862  0.73473171     0.02300
H443        H  0.83047680  0.19924847  0.72381901     0.16900
H444        H  0.87489556  0.17683419  0.65747088     0.16700
In445      In  0.11183158  0.70269726  0.48004926     1.36900
C446        C  0.12216732  0.72865599  0.52872992     0.79600
O447        O  0.12386775  0.66747792  0.51032516    -0.58900
O448        O  0.13928533  0.66579994  0.46821151    -0.49800
C449        C  0.06239723  0.69554492  0.45306911     0.72200
O450        O  0.06628547  0.71528836  0.47042178    -0.44600
C451        C  0.13823728  0.73777570  0.44450887     0.76900
O452        O  0.09988378  0.71420405  0.52523430    -0.56500
O453        O  0.14614742  0.71262473  0.44863020    -0.46600
O454        O  0.13798737  0.73031307  0.50748962    -0.52900
C455        C  0.14034118  0.65583584  0.49300998     0.87100
O456        O  0.08201644  0.67762586  0.45259752    -0.54800
O457        O  0.11637039  0.74481688  0.45775642    -0.58100
In458      In  0.21169092  0.61145458  0.51452163     1.36900
C459        C  0.23740623  0.62003848  0.46506916     0.79600
O460        O  0.17428287  0.61878938  0.48539373    -0.58900
O461        O  0.17439825  0.63827580  0.52572284    -0.49800
C462        C  0.20408184  0.56475447  0.54685758     0.72200
O463        O  0.22055326  0.56479207  0.52587914    -0.44600
C464        C  0.24868067  0.63979686  0.54557039     0.76900
O465        O  0.22561854  0.59654939  0.47083371    -0.56500
O466        O  0.22433789  0.64909859  0.54024042    -0.46600
O467        O  0.23615459  0.63816872  0.48432772    -0.52900
C468        C  0.16265414  0.63610412  0.50190947     0.87100
O469        O  0.18992886  0.58711425  0.54918185    -0.54800
O470        O  0.25396967  0.61563001  0.53583997    -0.58100
In471      In  0.10939029  0.47897707  0.70826257     1.36900
C472        C  0.12010403  0.52724079  0.73486964     0.79600
O473        O  0.11192165  0.45645299  0.75034204    -0.58900
O474        O  0.14359940  0.44805380  0.71983184    -0.49800
C475        C  0.06102257  0.45112291  0.69934623     0.72200
O476        O  0.06348344  0.46916791  0.71872498    -0.44600
C477        C  0.13760447  0.49154543  0.66146302     0.76900
O478        O  0.09729521  0.52390898  0.72116640    -0.56500
O479        O  0.13712288  0.46693665  0.67200030    -0.46600
O480        O  0.13631644  0.50620690  0.73512800    -0.52900
C481        C  0.13446832  0.44374375  0.74447464     0.87100
O482        O  0.08142632  0.45060996  0.68241578    -0.54800
O483        O  0.12097276  0.50896713  0.67278667    -0.58100
In484      In  0.20858561  0.51104236  0.61668491     1.36900
C485        C  0.23105015  0.46034489  0.62664124     0.79600
O486        O  0.25193728  0.52964783  0.62249941    -0.58900
O487        O  0.22073588  0.53799051  0.65356974    -0.49800
C488        C  0.20337352  0.54260003  0.56920969     0.72200
O489        O  0.21988425  0.52164022  0.57052104    -0.44600
C490        C  0.15946835  0.50009911  0.64127415     0.76900
O491        O  0.22010666  0.46635429  0.60282771    -0.56500
O492        O  0.17169071  0.52372136  0.64321467    -0.46600
O493        O  0.23083415  0.48004887  0.64433063    -0.52900
C494        C  0.24591867  0.54103371  0.64571026     0.87100
O495        O  0.18788460  0.54516319  0.59058507    -0.54800
O496        O  0.17040511  0.48323048  0.62386181    -0.58100
In497      In  0.01071225  0.70327126  0.38326660     1.36900
C498        C  0.96063200  0.72695183  0.37337811     0.79600
O499        O  0.03186981  0.74578227  0.37876152    -0.58900
O500        O  0.03998681  0.71447861  0.34777927    -0.49800
C501        C  0.03977488  0.69576569  0.43154427     0.72200
O502        O  0.02253427  0.71587569  0.42831708    -0.44600
C503        C  0.00182928  0.65516705  0.35628202     0.76900
O504        O  0.96548314  0.71356345  0.39621510    -0.56500
O505        O  0.02531139  0.66774248  0.35609414    -0.46600
O506        O  0.98113680  0.72849366  0.35666047    -0.52900
C507        C  0.04428601  0.73932020  0.35620925     0.87100
O508        O  0.03904639  0.67780955  0.41208282    -0.54800
O509        O  0.98357598  0.66556515  0.37262437    -0.58100
In510      In  0.98556642  0.60336782  0.28946123     1.36900
C511        C  0.03534444  0.60882541  0.26407173     0.79600
O512        O  0.95967640  0.60762389  0.24973563    -0.58900
O513        O  0.96194906  0.64285434  0.27731617    -0.49800
C514        C  0.95625849  0.55524709  0.29722692     0.72200
O515        O  0.97370132  0.55831712  0.27736919    -0.44600
C516        C  0.99533053  0.63299619  0.33582578     0.76900
O517        O  0.03150323  0.59016133  0.28306780    -0.56500
O518        O  0.97095230  0.63022634  0.32544572    -0.46600
O519        O  0.01381211  0.62283007  0.25739163    -0.52900
C520        C  0.95286544  0.63290602  0.25443661     0.87100
O521        O  0.95687156  0.57482779  0.31510379    -0.54800
O522        O  0.01417935  0.61805216  0.32448013    -0.58100
In523      In  0.78458511  0.47489887  0.38042613     1.36900
C524        C  0.75996235  0.52470774  0.37011505     0.79600
O525        O  0.82129190  0.50384205  0.37050577    -0.58900
O526        O  0.82142412  0.46222795  0.35363740    -0.49800
C527        C  0.79245705  0.44506431  0.42874626     0.72200
O528        O  0.77386893  0.46412620  0.42670134    -0.44600
C529        C  0.74805911  0.44269828  0.35267605     0.76900
O530        O  0.77292285  0.52000338  0.39319356    -0.56500
O531        O  0.77281411  0.44701183  0.34404583    -0.46600
O532        O  0.75908502  0.50410372  0.35350492    -0.52900
C533        C  0.83282424  0.48636260  0.35410433     0.87100
O534        O  0.80854413  0.44378822  0.40769817    -0.54800
O535        O  0.74225096  0.45366737  0.37614007    -0.58100
In536      In  0.88470403  0.50647212  0.28774564     1.36900
C537        C  0.87522458  0.45775644  0.26136454     0.79600
O538        O  0.87129148  0.47661886  0.32275661    -0.58900
O539        O  0.85632046  0.51903198  0.32348595    -0.49800
C540        C  0.93361676  0.53373880  0.29694179     0.72200
O541        O  0.93079351  0.51576663  0.27756981    -0.44600
C542        C  0.85985658  0.54182692  0.25154646     0.76900
O543        O  0.89703900  0.46116932  0.27655427    -0.56500
O544        O  0.85030070  0.53699354  0.27591857    -0.46600
O545        O  0.85948678  0.47907442  0.25923949    -0.52900
C546        C  0.85491501  0.49439805  0.33387277     0.87100
O547        O  0.91306975  0.53475035  0.31369370    -0.54800
O548        O  0.88260592  0.52939977  0.24585603    -0.58100
In549      In  0.78763949  0.37531753  0.48243993     1.36900
C550        C  0.76442445  0.36546714  0.53283185     0.79600
O551        O  0.74423839  0.36915853  0.46400674    -0.58900
O552        O  0.77620729  0.33942013  0.45379381    -0.49800
C553        C  0.79326173  0.42311816  0.45131679     0.72200
O554        O  0.77574480  0.42130210  0.47131962    -0.44600
C555        C  0.83578239  0.34875028  0.49407489     0.76900
O556        O  0.77687282  0.38871467  0.52748326    -0.56500
O557        O  0.82428778  0.34800123  0.47002663    -0.46600
O558        O  0.76343275  0.34840747  0.51259495    -0.52900
C559        C  0.75076305  0.34671486  0.45139867     0.87100
O560        O  0.80971310  0.40231391  0.44983982    -0.54800
O561        O  0.82488965  0.36612428  0.51101586    -0.58100
In562      In  0.88158381  0.27831720  0.51572947     1.36900
C563        C  0.87112446  0.25278829  0.46651477     0.79600
O564        O  0.87672661  0.23552953  0.53630664    -0.58900
O565        O  0.84506521  0.26655367  0.54347493    -0.49800
C566        C  0.92860103  0.28484955  0.54764040     0.72200
O567        O  0.92804942  0.26830408  0.52675512    -0.44600
C568        C  0.85631654  0.32717342  0.50300432     0.76900
O569        O  0.89460371  0.26495061  0.47113847    -0.56500
O570        O  0.85482666  0.31567582  0.52707628    -0.46600
O571        O  0.85407958  0.25340922  0.48680506    -0.52900
C572        C  0.85347451  0.24156919  0.54760137     0.87100
O573        O  0.90685339  0.29991657  0.54972273    -0.54800
O574        O  0.87351903  0.31563858  0.48630682    -0.58100
In575      In  0.01232597  0.37958707  0.70794631     1.36900
C576        C  0.96315994  0.36875432  0.73254413     0.79600
O577        O  0.98360263  0.36705480  0.67210946    -0.58900
O578        O  0.02535843  0.35049637  0.67302607    -0.49800
C579        C  0.03928793  0.42877610  0.69931725     0.72200
O580        O  0.02140260  0.42565484  0.71877437    -0.44600
C581        C  0.04659761  0.35483858  0.74522724     0.76900
O582        O  0.96679568  0.39128815  0.71825279    -0.56500
O583        O  0.04396317  0.34623738  0.72021935    -0.46600
O584        O  0.98444854  0.35304934  0.73470712    -0.52900
C585        C  0.00109910  0.34975452  0.66198397     0.87100
O586        O  0.04022416  0.40851534  0.68223475    -0.54800
O587        O  0.03265176  0.37671432  0.75098629    -0.58100
In588      In  0.98121297  0.27790772  0.61815624     1.36900
C589        C  0.03115487  0.25444683  0.62968979     0.79600
O590        O  0.00984069  0.31546457  0.62581675    -0.58900
O591        O  0.96898854  0.31537060  0.64427998    -0.49800
C592        C  0.95042461  0.28459040  0.57028652     0.72200
O593        O  0.97111616  0.26772718  0.57154027    -0.44600
C594        C  0.95026090  0.24031136  0.64630192     0.76900
O595        O  0.02649159  0.26656218  0.60606844    -0.56500
O596        O  0.95336819  0.26544460  0.65452658    -0.46600
O597        O  0.01043478  0.25370547  0.64619336    -0.52900
C598        C  0.99281377  0.32716290  0.64253882     0.87100
O599        O  0.94772425  0.29955271  0.59199109    -0.54800
O600        O  0.96200625  0.23458391  0.62316924    -0.58100
C601        C  0.35680804  0.29443335  0.67356244     0.88500
C602        C  0.37268684  0.27717383  0.65134290    -0.51800
C603        C  0.39666980  0.26483869  0.66186884     0.11400
C604        C  0.40228280  0.27073043  0.69348551     0.22300
C605        C  0.35125557  0.27397331  0.69836751    -0.52500
C606        C  0.37516956  0.26175172  0.70891559     0.11500
C607        C  0.37865621  0.31549578  0.68498293    -0.52000
C608        C  0.40219416  0.30307851  0.69568840     0.12100
H609        H  0.36623078  0.27570203  0.62934204     0.16600
H610        H  0.42176576  0.26075612  0.70211760     0.02300
H611        H  0.33063332  0.27103996  0.70796507     0.16900
H612        H  0.37531070  0.33818293  0.68598444     0.16700
C613        C  0.40171275  0.21967570  0.83399662     0.88500
C614        C  0.37326470  0.20708766  0.84317447    -0.51800
C615        C  0.35983756  0.19293398  0.82193431     0.11400
C616        C  0.37592887  0.19276333  0.79366838     0.22300
C617        C  0.41858444  0.19456816  0.82229052    -0.52500
C618        C  0.40499538  0.18059981  0.80112982     0.11500
C619        C  0.39523376  0.23825942  0.80792401    -0.52000
C620        C  0.38187095  0.22399455  0.78674488     0.12100
H621        H  0.36516884  0.20814231  0.86461136     0.16600
H622        H  0.36504258  0.18117526  0.77639127     0.02300
H623        H  0.43980273  0.18912578  0.82924540     0.16900
H624        H  0.40184538  0.26022050  0.80587006     0.16700
C625        C  0.22343627  0.39737286  0.83376190     0.88500
C626        C  0.19948053  0.41500852  0.82041928    -0.51800
C627        C  0.18558953  0.40133278  0.79922750     0.11400
C628        C  0.19661039  0.37152052  0.79336065     0.22300
C629        C  0.20937016  0.36963860  0.84343420    -0.52500
C630        C  0.19523741  0.35623435  0.82213527     0.11500
C631        C  0.24234129  0.38934390  0.80865740    -0.52000
C632        C  0.22809557  0.37593947  0.78746189     0.12100
H633        H  0.19468809  0.43665307  0.82642612     0.16600
H634        H  0.18508559  0.36061039  0.77604931     0.02300
H635        H  0.20948426  0.36203741  0.86517607     0.16900
H636        H  0.26449010  0.39513664  0.80711369     0.16700
C637        C  0.29774895  0.35220581  0.67470980     0.88500
C638        C  0.27696923  0.34553593  0.69878110    -0.51800
C639        C  0.26455293  0.36909597  0.70972451     0.11400
C640        C  0.27356107  0.39691812  0.69529267     0.22300
C641        C  0.28088690  0.36892570  0.65252091    -0.52500
C642        C  0.26828609  0.39248816  0.66333811     0.11500
C643        C  0.31840277  0.37371455  0.68748713    -0.52000
C644        C  0.30573112  0.39682574  0.69859695     0.12100
H645        H  0.27425507  0.32451312  0.70789419     0.16600
H646        H  0.26334722  0.41607152  0.70417807     0.02300
H647        H  0.27984044  0.36329599  0.63031003     0.16900
H648        H  0.34093577  0.37020497  0.68941890     0.16700
C649        C  0.22333547  0.08791068  0.65971937     0.88500
C650        C  0.19785254  0.07164486  0.67170652    -0.51800
C651        C  0.18457799  0.08543369  0.69308831     0.11400
C652        C  0.19774572  0.11408149  0.70047368     0.22300
C653        C  0.21169881  0.11694821  0.65073730    -0.52500
C654        C  0.19828823  0.13056845  0.67225292     0.11500
C655        C  0.24225498  0.09352272  0.68556497    -0.52000
C656        C  0.22867550  0.10703379  0.70698532     0.12100
H657        H  0.19175827  0.05056418  0.66488050     0.16600
H658        H  0.18671544  0.12514828  0.71793161     0.02300
H659        H  0.21288464  0.12534512  0.62931702     0.16900
H660        H  0.26392627  0.08617324  0.68732119     0.16700
C661        C  0.30262169  0.13129666  0.81672967     0.88500
C662        C  0.28048924  0.13651725  0.79349643    -0.51800
C663        C  0.26848642  0.11225385  0.78359653     0.11400
C664        C  0.27932740  0.08510947  0.79816635     0.22300
C665        C  0.28739793  0.11423569  0.84001177    -0.52500
C666        C  0.27519033  0.08986947  0.83017520     0.11500
C667        C  0.32357397  0.11051338  0.80363851    -0.52000
C668        C  0.31135150  0.08651976  0.79382154     0.12100
H669        H  0.27633746  0.15723762  0.78422643     0.16600
H670        H  0.26956704  0.06535516  0.79000720     0.02300
H671        H  0.28692730  0.12040878  0.86208362     0.16900
H672        H  0.34593335  0.11504086  0.80099918     0.16700
C673        C  0.09333241  0.26858032  0.83772485     0.88500
C674        C  0.12095066  0.28327408  0.84644305    -0.51800
C675        C  0.13416318  0.29650923  0.82428865     0.11400
C676        C  0.11875509  0.29382647  0.79577759     0.22300
C677        C  0.07557898  0.29190143  0.82338873    -0.52500
C678        C  0.08899485  0.30497730  0.80141900     0.11500
C679        C  0.10140732  0.24856766  0.81350694    -0.52000
C680        C  0.11454653  0.26196164  0.79146897     0.12100
H681        H  0.12874909  0.28398674  0.86805085     0.16600
H682        H  0.12946614  0.30468042  0.77781053     0.02300
H683        H  0.05401310  0.29686328  0.82938102     0.16900
H684        H  0.09580145  0.22625256  0.81313396     0.16700
C685        C  0.13917237  0.18917031  0.68053546     0.88500
C686        C  0.12250122  0.20593537  0.65813013    -0.51800
C687        C  0.09864140  0.21821885  0.66865508     0.11400
C688        C  0.09396772  0.21273705  0.70057833     0.22300
C689        C  0.14519955  0.21001824  0.70459828    -0.52500
C690        C  0.12140801  0.22214380  0.71528682     0.11500
C691        C  0.11797974  0.16802056  0.69307609    -0.52000
C692        C  0.09449923  0.18041195  0.70370208     0.12100
H693        H  0.12833963  0.20701938  0.63594929     0.16600
H694        H  0.07459607  0.22261230  0.70931935     0.02300
H695        H  0.16603219  0.21321683  0.71370667     0.16900
H696        H  0.12190876  0.14538006  0.69482249     0.16700
C697        C  0.30734255  0.66878002  0.35864798     0.88500
C698        C  0.29075686  0.64587139  0.37486884    -0.51800
C699        C  0.27838080  0.65589155  0.39894387     0.11400
C700        C  0.28370595  0.68769356  0.40427806     0.22300
C701        C  0.28638192  0.69294780  0.35311020    -0.52500
C702        C  0.27424052  0.70303515  0.37707617     0.11500
C703        C  0.32834838  0.68080955  0.38016544    -0.52000
C704        C  0.31590106  0.69082994  0.40389596     0.12100
H705        H  0.28952499  0.62388212  0.36839740     0.16600
H706        H  0.27375335  0.69599923  0.42379962     0.02300
H707        H  0.28314057  0.70263691  0.33243112     0.16900
H708        H  0.35086214  0.68287512  0.37620013     0.16700
C709        C  0.22847007  0.82670752  0.40226563     0.88500
C710        C  0.21726662  0.83609401  0.37327453    -0.51800
C711        C  0.20475739  0.81459888  0.35876518     0.11400
C712        C  0.20461058  0.78586043  0.37440630     0.22300
C713        C  0.20298780  0.81344261  0.41753936    -0.52500
C714        C  0.19064873  0.79194530  0.40289986     0.11500
C715        C  0.24825622  0.80159720  0.39653304    -0.52000
C716        C  0.23553525  0.78013011  0.38209128     0.12100
H717        H  0.21785397  0.85783847  0.36560572     0.16600
H718        H  0.19431583  0.76838180  0.36256919     0.02300
H719        H  0.19621332  0.81956127  0.43857160     0.16900
H720        H  0.26974551  0.80025889  0.40451365     0.16700
C721        C  0.09607807  0.65203845  0.22505457     0.88500
C722        C  0.07868046  0.66489480  0.20062108    -0.51800
C723        C  0.09191765  0.68675720  0.18710810     0.11400
C724        C  0.12117799  0.69370830  0.19894788     0.22300
C725        C  0.12432282  0.64350535  0.21170604    -0.52500
C726        C  0.13734372  0.66550266  0.19796634     0.11500
C727        C  0.10289766  0.67731627  0.24423408    -0.52000
C728        C  0.11586063  0.69918217  0.23038206     0.12100
H729        H  0.05734493  0.65820667  0.19538463     0.16600
H730        H  0.13177394  0.71156651  0.18774737     0.02300
H731        H  0.13262817  0.62206700  0.21212100     0.16900
H732        H  0.09667469  0.67842531  0.26629668     0.16700
C733        C  0.14392070  0.80977253  0.30162653     0.88500
C734        C  0.14813528  0.78526473  0.28096299    -0.51800
C735        C  0.12357653  0.77583772  0.26926788     0.11400
C736        C  0.09720579  0.79208186  0.27891045     0.22300
C737        C  0.12838841  0.83297970  0.28486329    -0.52500
C738        C  0.10377354  0.82364115  0.27297419     0.11500
C739        C  0.12238383  0.79862456  0.32317902    -0.52000
C740        C  0.09805356  0.78923961  0.31123935     0.12100
H741        H  0.16836259  0.77506527  0.27742958     0.16600
H742        H  0.07720019  0.78434712  0.26933487     0.02300
H743        H  0.13568889  0.85474772  0.28320353     0.16900
H744        H  0.12660539  0.79691315  0.34574546     0.16700
C745        C  0.22741863  0.65812485  0.09836134     0.88500
C746        C  0.21319208  0.64762537  0.12563338    -0.51800
C747        C  0.19904674  0.66855140  0.13949625     0.11400
C748        C  0.20054072  0.69780998  0.12504714     0.22300
C749        C  0.20361593  0.67193580  0.08095073    -0.52500
C750        C  0.18969165  0.69272040  0.09501204     0.11500
C751        C  0.24635271  0.68306234  0.10724172    -0.52000
C752        C  0.23208156  0.70394392  0.12106072     0.12100
H753        H  0.21319608  0.62563981  0.13258002     0.16600
H754        H  0.18894370  0.71480504  0.13628420     0.02300
H755        H  0.19890800  0.66649822  0.05913821     0.16900
H756        H  0.26840752  0.68498251  0.10128203     0.16700
C757        C  0.26884950  0.82960075  0.09719929     0.88500
C758        C  0.28251959  0.84045104  0.12450585    -0.51800
C759        C  0.29668460  0.81978302  0.13907357     0.11400
C760        C  0.29583646  0.79039342  0.12516666     0.22300
C761        C  0.29307670  0.81600206  0.08050627    -0.52500
C762        C  0.30706653  0.79541754  0.09520540     0.11500
C763        C  0.25012058  0.80446423  0.10620971    -0.52000
C764        C  0.26443841  0.78382663  0.12069629     0.12100
H765        H  0.28211015  0.86246618  0.13101064     0.16600
H766        H  0.30746437  0.77360264  0.13699136     0.02300
H767        H  0.29786514  0.82126661  0.05861316     0.16900
H768        H  0.22817745  0.80223586  0.09986060     0.16700
C769        C  0.35908136  0.81509051  0.19519132     0.88500
C770        C  0.35352250  0.79088399  0.21630965    -0.51800
C771        C  0.37747671  0.78034596  0.22844962     0.11400
C772        C  0.40468929  0.79540201  0.21884122     0.22300
C773        C  0.37557522  0.83767416  0.21167330    -0.52500
C774        C  0.39965139  0.82730090  0.22404067     0.11500
C775        C  0.38032057  0.80283975  0.17416709    -0.52000
C776        C  0.40404251  0.79240220  0.18657512     0.12100
H777        H  0.33285151  0.78140089  0.21951686     0.16600
H778        H  0.42419828  0.78679404  0.22878732     0.02300
H779        H  0.36934095  0.85977255  0.21271717     0.16900
H780        H  0.37621752  0.80105458  0.15161192     0.16700
C781        C  0.40590093  0.65583412  0.27053630     0.88500
C782        C  0.42166338  0.66894235  0.29575672    -0.51800
C783        C  0.40668663  0.68951256  0.30910147     0.11400
C784        C  0.37746879  0.69497039  0.29632570     0.22300
C785        C  0.37786502  0.64509036  0.28271119    -0.52500
C786        C  0.36308570  0.66568587  0.29631540     0.11500
C787        C  0.39826815  0.68127187  0.25148608    -0.52000
C788        C  0.38359476  0.70189105  0.26520575     0.12100
H789        H  0.44315782  0.66338233  0.30167192     0.16600
H790        H  0.36542647  0.71172850  0.30744922     0.02300
H791        H  0.37115571  0.62309059  0.28207652     0.16900
H792        H  0.40542889  0.68358227  0.22977960     0.16700
In793      In  0.38221870  0.70438829  0.01790496     1.36900
C794        C  0.37105336  0.72968547  0.96828536     0.79600
O795        O  0.37197424  0.66775827  0.98936123    -0.58900
O796        O  0.35566026  0.66716173  0.03119683    -0.49800
C797        C  0.43108876  0.69568479  0.04544306     0.72200
O798        O  0.42869680  0.71437760  0.02636753    -0.44600
C799        C  0.35717128  0.74054427  0.05266070     0.76900
O800        O  0.39406745  0.71662611  0.97256152    -0.56500
O801        O  0.34729545  0.71633654  0.04757011    -0.46600
O802        O  0.35484807  0.73043444  0.98928173    -0.52900
C803        C  0.35596246  0.65586908  0.00712325     0.87100
O804        O  0.41001146  0.67964336  0.04771596    -0.54800
O805        O  0.38022407  0.74614501  0.04064826    -0.58100
In806      In  0.29012318  0.60325887  0.98792239     1.36900
C807        C  0.26519960  0.61368763  0.03705337     0.79600
O808        O  0.32551121  0.61644042  0.01712462    -0.58900
O809        O  0.32503459  0.63263620  0.97504083    -0.49800
C810        C  0.29901277  0.55440266  0.96065492     0.72200
O811        O  0.27993084  0.55686697  0.97901028    -0.44600
C812        C  0.25364428  0.62791591  0.95284623     0.76900
O813        O  0.28069768  0.59206276  0.03394535    -0.56500
O814        O  0.27843888  0.63695115  0.95622576    -0.46600
O815        O  0.26160778  0.62846432  0.01512666    -0.52900
C816        C  0.33592032  0.63356120  0.99937213     0.87100
O817        O  0.31570935  0.57509572  0.95948842    -0.54800
O818        O  0.24763567  0.60585068  0.96669417    -0.58100
In819      In  0.38138612  0.47547066  0.78952044     1.36900
C820        C  0.37162370  0.52603225  0.76649934     0.79600
O821        O  0.37490436  0.45505507  0.74724525    -0.58900
O822        O  0.34394438  0.44809938  0.77899085    -0.49800
C823        C  0.42963632  0.44582572  0.79439651     0.72200
O824        O  0.42650041  0.46490474  0.77583640    -0.44600
C825        C  0.35689991  0.48598408  0.83864941     0.76900
O826        O  0.39456403  0.52087001  0.77940365    -0.56500
O827        O  0.35622388  0.46190375  0.82731680    -0.46600
O828        O  0.35490196  0.50546993  0.76473043    -0.52900
C829        C  0.35160406  0.44404924  0.75386442     0.87100
O830        O  0.40981494  0.44445114  0.81198918    -0.54800
O831        O  0.37285476  0.50378390  0.82666617    -0.58100
In832      In  0.29055514  0.50491663  0.88985361     1.36900
C833        C  0.26483833  0.45624607  0.87847251     0.79600
O834        O  0.24769822  0.52500767  0.88601944    -0.58900
O835        O  0.27948771  0.53763599  0.85693435    -0.49800
C836        C  0.29898051  0.53227038  0.93873790     0.72200
O837        O  0.27920212  0.51467462  0.93563878    -0.44600
C838        C  0.33690964  0.49379030  0.86081499     0.76900
O839        O  0.27764251  0.45973087  0.90179372    -0.56500
O840        O  0.32577990  0.51802728  0.86123065    -0.46600
O841        O  0.26513258  0.47726393  0.86203561    -0.52900
C842        C  0.25421125  0.53978330  0.86476525     0.87100
O843        O  0.31644135  0.53256661  0.91875623    -0.54800
O844        O  0.32649558  0.47603836  0.87798700    -0.58100
In845      In  0.48235751  0.37663218  0.78636450     1.36900
C846        C  0.53267054  0.36586636  0.76434280     0.79600
O847        O  0.51053798  0.36806211  0.82382438    -0.58900
O848        O  0.46890200  0.35087961  0.82368716    -0.49800
C849        C  0.45194960  0.42398841  0.79365999     0.72200
O850        O  0.47053111  0.42229936  0.77462363    -0.44600
C851        C  0.45126662  0.34867576  0.74917967     0.67300
O852        O  0.52723599  0.38984081  0.77500618    -0.56500
O853        O  0.45508245  0.33989291  0.77410075    -0.46600
O854        O  0.51246569  0.34862550  0.76419937    -0.52900
C855        C  0.49280917  0.35176415  0.83544817     0.87100
O856        O  0.45151779  0.40319559  0.81040692    -0.54800
O857        O  0.46238282  0.37226188  0.74344612    -0.58100
In858      In  0.51082946  0.28481632  0.88693923     1.36900
C859        C  0.46165103  0.25997499  0.87732325     0.79600
O860        O  0.48250834  0.32106233  0.87450057    -0.58900
O861        O  0.52454337  0.32038802  0.85866476    -0.49800
C862        C  0.53828709  0.29329783  0.93517043     0.72200
O863        O  0.51954562  0.27447880  0.93299913    -0.44600
C864        C  0.54524658  0.24758346  0.86299544     0.76900
O865        O  0.46589322  0.27361686  0.89992303    -0.56500
O866        O  0.54127414  0.27205240  0.85302711    -0.46600
O867        O  0.48229528  0.25886187  0.86074220    -0.52900
C868        C  0.50043399  0.33163040  0.85777094     0.87100
O869        O  0.53960803  0.31020146  0.91454908    -0.54800
O870        O  0.53221789  0.24220520  0.88556753    -0.58100
In871      In  0.70729163  0.37926344  0.00899963     1.36900
C872        C  0.73308300  0.37007415  0.96017007     0.79600
O873        O  0.74791183  0.37806627  0.03389648    -0.58900
O874        O  0.71910685  0.34382747  0.03848363    -0.49800
C875        C  0.69795180  0.42793142  0.03561372     0.72200
O876        O  0.71770078  0.42533513  0.01801221    -0.44600
C877        C  0.66061501  0.35006879  0.99912407     0.76900
O878        O  0.71773162  0.39171433  0.96357391    -0.56500
O879        O  0.67191216  0.35135536  0.02323072    -0.46600
O880        O  0.73578254  0.35440213  0.98159138    -0.52900
C881        C  0.74253530  0.35443724  0.04517669     0.87100
O882        O  0.68091130  0.40751035  0.03618095    -0.54800
O883        O  0.67146531  0.36601430  0.98055183    -0.58100
In884      In  0.60955258  0.28233405  0.98264972     1.36900
C885        C  0.61713011  0.25510918  0.03135981     0.79600
O886        O  0.61106348  0.24333074  0.95556716    -0.58900
O887        O  0.64689987  0.27042871  0.95631568    -0.49800
C888        C  0.56060727  0.29238958  0.95667091     0.72200
O889        O  0.56361167  0.27204561  0.97380905    -0.44600
C890        C  0.63915270  0.32880328  0.99265019     0.76900
O891        O  0.59791086  0.27353831  0.02856954    -0.56500
O892        O  0.63602228  0.31902586  0.96810577    -0.46600
O893        O  0.63079371  0.24987140  0.00931248    -0.52900
C894        C  0.63596900  0.24785989  0.94747612     0.87100
O895        O  0.58101167  0.30939907  0.95595685    -0.54800
O896        O  0.62496389  0.31648407  0.01164185    -0.58100
In897      In  0.48503978  0.70232443  0.11345523     1.36900
C898        C  0.53492993  0.72631062  0.12185753     0.79600
O899        O  0.46449074  0.74502455  0.11779663    -0.58900
O900        O  0.45790227  0.71438445  0.15028017    -0.49800
C901        C  0.45402148  0.69514589  0.06660748     0.72200
O902        O  0.47339835  0.71345974  0.06783505    -0.44600
C903        C  0.49728566  0.65427360  0.13981888     0.76900
O904        O  0.52950071  0.71372385  0.09886467    -0.56500
O905        O  0.47313762  0.66542145  0.14076297    -0.46600
O906        O  0.51497092  0.72711323  0.13926166    -0.52900
C907        C  0.45358607  0.73920576  0.14139001     0.87100
O908        O  0.45326410  0.67852098  0.08749457    -0.54800
O909        O  0.51424579  0.66573669  0.12266620    -0.58100
In910      In  0.51783087  0.60487728  0.20776487     1.36900
C911        C  0.46850862  0.61394240  0.23251526     0.79600
O912        O  0.54048907  0.60613353  0.24960026    -0.58900
O913        O  0.54657294  0.64035269  0.22080209    -0.49800
C914        C  0.54553852  0.55655679  0.19910490     0.72200
O915        O  0.52709657  0.55874529  0.21813563    -0.44600
C916        C  0.50592531  0.63281925  0.16053085     0.76900
O917        O  0.47313330  0.59128199  0.21912377    -0.56500
O918        O  0.53032026  0.63278495  0.17130413    -0.46600
O919        O  0.48900186  0.63080656  0.23378963    -0.52900
C920        C  0.55172252  0.62984116  0.24481750     0.87100
O921        O  0.54694292  0.57749583  0.18254786    -0.54800
O922        O  0.48860125  0.61596144  0.17189987    -0.58100
In923      In  0.70635097  0.47607195  0.10668747     1.36900
C924        C  0.73253882  0.52469242  0.11709918     0.79600
O925        O  0.67089015  0.50486522  0.11945708    -0.58900
O926        O  0.67086626  0.46229448  0.13468017    -0.49800
C927        C  0.69773067  0.44967000  0.05769015     0.72200
O928        O  0.71707992  0.46774972  0.06064898    -0.44600
C929        C  0.74182164  0.44083331  0.13233329     0.76900
O930        O  0.71667386  0.52202030  0.09566770    -0.56500
O931        O  0.71745781  0.44572342  0.14164863    -0.46600
O932        O  0.73546878  0.50271976  0.13193173    -0.52900
C933        C  0.66007107  0.48664161  0.13582254     0.87100
O934        O  0.68071093  0.44835873  0.07800201    -0.54800
O935        O  0.74773045  0.45288268  0.10925042    -0.58100
In936      In  0.61421364  0.50388470  0.20628846     1.36900
C937        C  0.62339689  0.45348012  0.22991139     0.79600
O938        O  0.62343045  0.47613229  0.16901182    -0.58900
O939        O  0.64080599  0.51775224  0.16983100    -0.49800
C940        C  0.56703155  0.53409658  0.19883393     0.72200
O941        O  0.56866590  0.51468040  0.21725246    -0.44600
C942        C  0.64163629  0.53569189  0.24317492     0.76900
O943        O  0.60043702  0.45877093  0.21706352    -0.56500
O944        O  0.65076092  0.53134634  0.21861815    -0.46600
O945        O  0.64048774  0.47379216  0.23109261    -0.52900
C946        C  0.63993254  0.49399759  0.15788598     0.87100
O947        O  0.58777025  0.53537889  0.18236978    -0.54800
O948        O  0.61815598  0.52449479  0.24875491    -0.58100
In949      In  0.70608029  0.01043179  0.38797607     1.36900
C950        C  0.73200638  0.96126634  0.37995853     0.79600
O951        O  0.67062796  0.98074970  0.37639080    -0.58900
O952        O  0.67078201  0.02210627  0.35828246    -0.49800
C953        C  0.69704562  0.03882447  0.43600696     0.72200
O954        O  0.71555248  0.01976294  0.43430396    -0.44600
C955        C  0.74317487  0.04410335  0.36255092     0.76900
O956        O  0.71673369  0.96526004  0.40151986    -0.56500
O957        O  0.71884544  0.03979718  0.35266149    -0.46600
O958        O  0.73451403  0.98229059  0.36371272    -0.52900
C959        C  0.66000664  0.99767026  0.35854094     0.87100
O960        O  0.68113323  0.04061562  0.41473181    -0.54800
O961        O  0.74818964  0.03227216  0.38596095    -0.58100
In962      In  0.61432091  0.97504566  0.28861895     1.36900
C963        C  0.62720669  0.02311848  0.26151503     0.79600
O964        O  0.62317972  0.00531597  0.32432951    -0.58900
O965        O  0.64134202  0.96415013  0.32611223    -0.49800
C966        C  0.56579084  0.94705602  0.29771939     0.72200
O967        O  0.56774885  0.96630408  0.27913333    -0.44600
C968        C  0.63839021  0.93901543  0.25328302     0.76900
O969        O  0.60298230  0.01921165  0.27225794    -0.56500
O970        O  0.64782737  0.94339295  0.27778426    -0.46600
O971        O  0.64387640  0.00253364  0.26405454    -0.52900
C972        C  0.64006712  0.98857859  0.33662868     0.87100
O973        O  0.58692201  0.94523232  0.31378509    -0.54800
O974        O  0.61624611  0.95237250  0.24699549    -0.58100
In975      In  0.48079643  0.78098705  0.38698655     1.36900
C976        C  0.52951214  0.75452408  0.37963753     0.79600
O977        O  0.45832362  0.73892600  0.38456997    -0.58900
O978        O  0.45128633  0.76906093  0.35174573    -0.49800
C979        C  0.45274607  0.79090767  0.43488744     0.72200
O980        O  0.47142426  0.77199083  0.43346043    -0.44600
C981        C  0.49402927  0.82736929  0.35754119     0.76900
O982        O  0.52548881  0.76998629  0.40103691    -0.56500
O983        O  0.46941451  0.81722548  0.35806730    -0.46600
O984        O  0.50870118  0.75205475  0.36330982    -0.52900
C985        C  0.44651792  0.74457232  0.36132425     0.87100
O986        O  0.45127479  0.80671319  0.41343144    -0.54800
O987        O  0.51122462  0.81565924  0.37433072    -0.58100
In988      In  0.51492756  0.87666635  0.28894111     1.36900
C989        C  0.46599895  0.86545320  0.26304361     0.79600
O990        O  0.53584540  0.87445483  0.24634002    -0.58900
O991        O  0.54676940  0.84359437  0.27747578    -0.49800
C992        C  0.54357826  0.92501583  0.29782431     0.72200
O993        O  0.52420124  0.92343512  0.27953858    -0.44600
C994        C  0.50271171  0.84815996  0.33605988     0.76900
O995        O  0.46958901  0.88817524  0.27674288    -0.56500
O996        O  0.52634645  0.84654160  0.32400745    -0.46600
O997        O  0.48728966  0.84963714  0.26199995    -0.52900
C998        C  0.54996444  0.85268928  0.25257847     0.87100
O999        O  0.54527744  0.90363909  0.31375443    -0.54800
O1000       O  0.48621670  0.86655836  0.32578731    -0.58100
In1001     In  0.38354475  0.78366010  0.48610784     1.36900
C1002       C  0.37363472  0.75990932  0.53588482     0.79600
O1003       O  0.37304876  0.82078352  0.51361109    -0.58900
O1004       O  0.35688096  0.81990366  0.47154620    -0.49800
C1005       C  0.43096835  0.79164281  0.45695722     0.72200
O1006       O  0.42986695  0.77441411  0.47747774    -0.44600
C1007       C  0.35840927  0.74539610  0.45422640     0.76900
O1008       O  0.39659776  0.77289139  0.53111705    -0.56500
O1009       O  0.34782431  0.76938577  0.45870107    -0.46600
O1010       O  0.35681502  0.75863305  0.51534825    -0.52900
C1011       C  0.35688228  0.83175306  0.49533146     0.87100
O1012       O  0.40947956  0.80701094  0.45415026    -0.54800
O1013       O  0.38220222  0.74109683  0.46536069    -0.58100
In1014     In  0.28987764  0.88268263  0.51224590     1.36900
C1015       C  0.26491522  0.87210125  0.46337243     0.79600
O1016       O  0.32538582  0.86962133  0.48372890    -0.58900
O1017       O  0.32527802  0.85480312  0.52638707    -0.49800
C1018       C  0.29949500  0.93102490  0.53898545     0.72200
O1019       O  0.28030836  0.92898320  0.52058100    -0.44600
C1020       C  0.25335842  0.85831843  0.54717833     0.76900
O1021       O  0.27928144  0.89449773  0.46673025    -0.56500
O1022       O  0.27792065  0.84894037  0.54351037    -0.46600
O1023       O  0.26279266  0.85640276  0.48483361    -0.52900
C1024       C  0.33626131  0.85354402  0.50219269     0.87100
O1025       O  0.31595736  0.91021902  0.54027071    -0.54800
O1026       O  0.24758007  0.88072062  0.53376759    -0.58100
In1027     In  0.38652498  0.00392316  0.70730497     1.36900
C1028       C  0.37837078  0.95326888  0.73046856     0.79600
O1029       O  0.38023204  0.02487766  0.74926506    -0.58900
O1030       O  0.34977782  0.03214891  0.71692120    -0.49800
C1031       C  0.43489957  0.03250120  0.70176369     0.72200
O1032       O  0.43122372  0.01463931  0.72132464    -0.44600
C1033       C  0.35864729  0.99525072  0.65968852     0.76900
O1034       O  0.39899822  0.95780062  0.71405178    -0.56500
O1035       O  0.36021526  0.01930124  0.67096780    -0.46600
O1036       O  0.36339978  0.97451720  0.73570620    -0.52900
C1037       C  0.35736253  0.03642675  0.74204206     0.87100
O1038       O  0.41587056  0.03258500  0.68322120    -0.54800
O1039       O  0.37384286  0.97633699  0.67096038    -0.58100
In1040     In  0.29036177  0.97876350  0.60984220     1.36900
C1041       C  0.26386497  0.02742271  0.61793033     0.79600
O1042       O  0.24993307  0.95365289  0.61117567    -0.58900
O1043       O  0.27814232  0.95012343  0.64596902    -0.49800
C1044       C  0.29954993  0.95256972  0.56112856     0.72200
O1045       O  0.28043745  0.97091852  0.56359343    -0.44600
C1046       C  0.33742899  0.98888649  0.63821645     0.76900
O1047       O  0.27876393  0.02355059  0.59610528    -0.56500
O1048       O  0.32707432  0.96442900  0.63595617    -0.46600
O1049       O  0.26233756  0.00663988  0.63461985    -0.52900
C1050       C  0.25485772  0.94315505  0.63521728     0.87100
O1051       O  0.31604123  0.95077126  0.58192739    -0.54800
O1052       O  0.32551718  0.00779728  0.62345722    -0.58100
In1053     In  0.70487676  0.10742276  0.48846158     1.36900
C1054       C  0.72812948  0.11867914  0.53807138     0.79600
O1055       O  0.74810674  0.10985470  0.46943431    -0.58900
O1056       O  0.71862823  0.14250002  0.45958525    -0.49800
C1057       C  0.69673744  0.06044693  0.45833152     0.72200
O1058       O  0.71404678  0.06110238  0.47868917    -0.44600
C1059       C  0.65716431  0.13355369  0.49917545     0.76900
O1060       O  0.71757342  0.09449696  0.53313255    -0.56500
O1061       O  0.66931946  0.13533551  0.47554916    -0.46600
O1062       O  0.72710925  0.13608441  0.51787267    -0.52900
C1063       C  0.74321912  0.13287141  0.45674298     0.87100
O1064       O  0.68149416  0.08213115  0.45608627    -0.54800
O1065       O  0.66733380  0.11548542  0.51619439    -0.58100
In1066     In  0.61253470  0.20381681  0.51830831     1.36900
C1067       C  0.62393130  0.22617919  0.46779204     0.79600
O1068       O  0.61824600  0.24744507  0.53615983    -0.58900
O1069       O  0.64853003  0.21581319  0.54663449    -0.49800
C1070       C  0.56567255  0.19684151  0.54937358     0.72200
O1071       O  0.56675992  0.21474446  0.52939763    -0.44600
C1072       C  0.63667511  0.15483823  0.50762182     0.76900
O1073       O  0.59955598  0.21640694  0.47336768    -0.56500
O1074       O  0.63839371  0.16654247  0.53142935    -0.46600
O1075       O  0.64135474  0.22491773  0.48783443    -0.52900
C1076       C  0.64097281  0.24127070  0.54862331     0.87100
O1077       O  0.58682462  0.18087910  0.55095998    -0.54800
O1078       O  0.61962815  0.16619453  0.49039896    -0.58100
In1079     In  0.48307333  0.10369330  0.71286702     1.36900
C1080       C  0.53191550  0.11328850  0.73865397     0.79600
O1081       O  0.51272331  0.11648234  0.67796584    -0.58900
O1082       O  0.47024249  0.13101219  0.67605256    -0.49800
C1083       C  0.45626801  0.05503435  0.70294977     0.72200
O1084       O  0.47394328  0.05739335  0.72278178    -0.44600
C1085       C  0.44803928  0.12873334  0.74869747     0.76900
O1086       O  0.52809375  0.09099665  0.72437352    -0.56500
O1087       O  0.45415226  0.13918075  0.72492251    -0.46600
O1088       O  0.51081258  0.12924602  0.74050506    -0.52900
C1089       C  0.49486467  0.13240872  0.66605598     0.87100
O1090       O  0.45524902  0.07599135  0.68641763    -0.54800
O1091       O  0.45901157  0.10499205  0.75397579    -0.58100
In1092     In  0.51407221  0.20292824  0.61948891     1.36900
C1093       C  0.46388458  0.22672959  0.62694443     0.79600
O1094       O  0.48542631  0.16590539  0.62897227    -0.58900
O1095       O  0.52691290  0.16576817  0.64624227    -0.49800
C1096       C  0.54403418  0.19665991  0.57178874     0.72200
O1097       O  0.52433725  0.21450875  0.57354601    -0.44600
C1098       C  0.54567955  0.23910773  0.64841813     0.76900
O1099       O  0.46916486  0.21242468  0.60502156    -0.56500
O1100       O  0.54053453  0.21440677  0.65719961    -0.46600
O1101       O  0.48415452  0.22935272  0.64390234    -0.52900
C1102       C  0.50287921  0.15433041  0.64558492     0.87100
O1103       O  0.54608127  0.18043384  0.59289614    -0.54800
O1104       O  0.53537857  0.24518145  0.62455728    -0.58100
C1105       C  0.67364663  0.34754750  0.29881915     0.88500
C1106       C  0.65108510  0.36275933  0.28103508    -0.51800
C1107       C  0.66091316  0.38700500  0.26842142     0.11400
C1108       C  0.69234759  0.39348902  0.27457580     0.22300
C1109       C  0.69860049  0.34244373  0.27880778    -0.52500
C1110       C  0.70853071  0.36659295  0.26632687     0.11500
C1111       C  0.68440171  0.36996890  0.31956711    -0.52000
C1112       C  0.69454195  0.39372188  0.30689842     0.12100
H1113       H  0.62929666  0.35573397  0.27949195     0.16600
H1114       H  0.70045821  0.41316274  0.26437878     0.02300
H1115       H  0.70878514  0.32199246  0.27642049     0.16900
H1116       H  0.68560482  0.36680889  0.34222338     0.16700
C1117       C  0.83155013  0.39690214  0.22189143     0.88500
C1118       C  0.84096436  0.36906508  0.20816196    -0.51800
C1119       C  0.81933541  0.35519113  0.19492640     0.11400
C1120       C  0.79063927  0.37018918  0.19666787     0.22300
C1121       C  0.81758879  0.41400169  0.19783649    -0.52500
C1122       C  0.79620314  0.39985525  0.18475173     0.11500
C1123       C  0.80701881  0.38880466  0.24164497    -0.52000
C1124       C  0.78552244  0.37501099  0.22823950     0.12100
H1125       H  0.86267542  0.36169185  0.20790163     0.16600
H1126       H  0.77310531  0.35893211  0.18580732     0.02300
H1127       H  0.82347498  0.43559429  0.19227556     0.16900
H1128       H  0.80603259  0.39487375  0.26373543     0.16700
C1129       C  0.66094119  0.21730956  0.09349149     0.88500
C1130       C  0.67541841  0.19287457  0.07781897    -0.51800
C1131       C  0.69677040  0.18055568  0.09286441     0.11400
C1132       C  0.70152918  0.19345789  0.12211289     0.22300
C1133       C  0.65108490  0.20445917  0.12166834    -0.52500
C1134       C  0.67247109  0.19194288  0.13657796     0.11500
C1135       C  0.68516023  0.23764731  0.10102990    -0.52000
C1136       C  0.70649054  0.22497608  0.11589122     0.12100
H1137       H  0.67015926  0.18679858  0.05630944     0.16600
H1138       H  0.71891687  0.18317342  0.13423551     0.02300
H1139       H  0.62921865  0.20415696  0.12853942     0.16900
H1140       H  0.68621792  0.25946751  0.09362763     0.16700
C1141       C  0.83064900  0.26686253  0.09424236     0.88500
C1142       C  0.81716188  0.29082564  0.07666928    -0.51800
C1143       C  0.79583426  0.30435756  0.09029470     0.11400
C1144       C  0.78992972  0.29295980  0.12009350     0.22300
C1145       C  0.84009331  0.28087774  0.12189158    -0.52500
C1146       C  0.81861501  0.29460466  0.13532507     0.11500
C1147       C  0.80581408  0.24746542  0.10232071    -0.52000
C1148       C  0.78442928  0.26127702  0.11570436     0.12100
H1149       H  0.82318312  0.29588069  0.05504048     0.16600
H1150       H  0.77247424  0.30418284  0.13098045     0.02300
H1151       H  0.86176846  0.28098656  0.12944778     0.16900
H1152       H  0.80446704  0.22533122  0.09632885     0.16700
C1153       C  0.67876884  0.13071435  0.19427447     0.88500
C1154       C  0.65600013  0.11375457  0.21015603    -0.51800
C1155       C  0.66625914  0.08961740  0.22266935     0.11400
C1156       C  0.69823679  0.08500487  0.21826057     0.22300
C1157       C  0.70221589  0.13642913  0.21596736    -0.52500
C1158       C  0.71262289  0.11240586  0.22831036     0.11500
C1159       C  0.69183523  0.10973008  0.17349003    -0.52000
C1160       C  0.70212931  0.08596364  0.18610504     0.12100
H1161       H  0.63387110  0.11972296  0.21067487     0.16600
H1162       H  0.70675255  0.06543939  0.22833877     0.02300
H1163       H  0.71128001  0.15726163  0.21950183     0.16900
H1164       H  0.69407485  0.11395959  0.15096579     0.16700
C1165       C  0.83492085  0.08308814  0.27357460     0.88500
C1166       C  0.84567322  0.11102862  0.28614512    -0.51800
C1167       C  0.82495229  0.12607733  0.29934897     0.11400
C1168       C  0.79562312  0.11201359  0.29860839     0.22300
C1169       C  0.82095719  0.06726695  0.29845786    -0.52500
C1170       C  0.80034269  0.08255259  0.31139365     0.11500
C1171       C  0.81017116  0.09127427  0.25405915    -0.52000
C1172       C  0.78947382  0.10617783  0.26734873     0.12100
H1173       H  0.86767830  0.11752068  0.28591953     0.16600
H1174       H  0.77876276  0.12421656  0.30938529     0.02300
H1175       H  0.82597674  0.04555835  0.30440621     0.16900
H1176       H  0.80829528  0.08423219  0.23231104     0.16700
C1177       C  0.82061083  0.18304361  0.36096434     0.88500
C1178       C  0.79653953  0.20408431  0.35516608    -0.51800
C1179       C  0.78632760  0.21649914  0.37899273     0.11400
C1180       C  0.80160516  0.20731481  0.40628666     0.22300
C1181       C  0.84339060  0.19982634  0.37694709    -0.52500
C1182       C  0.83337442  0.21252658  0.40086522     0.11500
C1183       C  0.80846567  0.16225749  0.38282988    -0.52000
C1184       C  0.79838562  0.17502945  0.40636493     0.12100
H1185       H  0.78692184  0.20706545  0.33446615     0.16600
H1186       H  0.79327810  0.21749072  0.42567776     0.02300
H1187       H  0.86535692  0.20085116  0.37049298     0.16900
H1188       H  0.80626932  0.13964800  0.37917709     0.16700
C1189       C  0.67495690  0.28944334  0.35854672     0.88500
C1190       C  0.69927464  0.26854946  0.35371885    -0.51800
C1191       C  0.70983333  0.25711701  0.37814649     0.11400
C1192       C  0.69467031  0.26710250  0.40503345     0.22300
C1193       C  0.65256948  0.27299903  0.37533827    -0.52500
C1194       C  0.66287600  0.26139651  0.39987012     0.11500
C1195       C  0.68697804  0.31108416  0.37942916    -0.52000
C1196       C  0.69752320  0.29939925  0.40349648     0.12100
H1197       H  0.70870787  0.26490144  0.33314515     0.16600
H1198       H  0.70321950  0.25773073  0.42491833     0.02300
H1199       H  0.63053329  0.27164252  0.36907523     0.16900
H1200       H  0.68855766  0.33354051  0.37507453     0.16700
C1201       C  0.73660274  0.24239138  0.37888245    -0.11300
C1202       C  0.75958312  0.23127295  0.37909885    -0.12800
C1203       C  0.83031310  0.15036996  0.31694403    -0.11300
C1204       C  0.82947619  0.16775027  0.33552567    -0.12800
C1205       C  0.73896534  0.11227105  0.24381399    -0.11300
C1206       C  0.76200447  0.11075952  0.25473908    -0.12800
C1207       C  0.66804227  0.17471145  0.16142735    -0.11300
C1208       C  0.66946876  0.15626506  0.17912476    -0.12800
C1209       C  0.73365986  0.23827510  0.11984627    -0.11300
C1210       C  0.75698121  0.24859931  0.11982103    -0.12800
C1211       C  0.82317201  0.33077012  0.17724830    -0.11300
C1212       C  0.82282395  0.31265257  0.15942077    -0.12800
C1213       C  0.66497018  0.32184333  0.31423495    -0.11300
C1214       C  0.66547633  0.30389996  0.33256890    -0.12800
C1215       C  0.73537689  0.36759782  0.25191088    -0.11300
C1216       C  0.75844452  0.36988431  0.24131323    -0.12800
C1217       C  0.63249080  0.23762317  0.44076522    -0.11300
C1218       C  0.64494088  0.24786840  0.42081833    -0.12800
C1219       C  0.78090526  0.16002710  0.42615202    -0.11300
C1220       C  0.76421577  0.14736856  0.44056737    -0.12800
C1221       C  0.63628399  0.04910103  0.24793274    -0.11300
C1222       C  0.64844740  0.06873976  0.23663169    -0.12800
C1223       C  0.76423807  0.05965198  0.34728255    -0.11300
C1224       C  0.78160942  0.07059894  0.33220542    -0.12800
C1225       C  0.63088437  0.42643503  0.24203163    -0.11300
C1226       C  0.64285165  0.40677693  0.25338370    -0.12800
C1227       C  0.76195136  0.42443096  0.14800564    -0.11300
C1228       C  0.77834581  0.41271472  0.16364941    -0.12800
C1229       C  0.62513298  0.24210464  0.05772406    -0.11300
C1230       C  0.63876015  0.23080343  0.07623074    -0.12800
C1231       C  0.77807977  0.32493876  0.07643248    -0.11300
C1232       C  0.76212261  0.33981556  0.06317973    -0.12800
C1233       C  0.41886888  0.70748547  0.33040872    -0.11300
C1234       C  0.43037183  0.72410716  0.34587249    -0.12800
C1235       C  0.44191495  0.62144911  0.24490228    -0.11300
C1236       C  0.42315687  0.63444351  0.25616426    -0.12800
C1237       C  0.37776795  0.75332115  0.24303137    -0.11300
C1238       C  0.37926522  0.72981085  0.25319716    -0.12800
C1239       C  0.43785638  0.75945173  0.15730571    -0.11300
C1240       C  0.42374149  0.77546607  0.17099755    -0.12800
C1241       C  0.42013045  0.84498378  0.23856528    -0.11300
C1242       C  0.43969516  0.85691965  0.25002981    -0.12800
C1243       C  0.31466155  0.82523707  0.16305587    -0.11300
C1244       C  0.33348516  0.82434546  0.18025133    -0.12800
C1245       C  0.34237720  0.76070074  0.06969029    -0.11300
C1246       C  0.32758064  0.77717505  0.08216176    -0.12800
C1247       C  0.24386097  0.73185655  0.12530964    -0.11300
C1248       C  0.25288539  0.75580242  0.12521131    -0.12800
C1249       C  0.25328665  0.62258028  0.06351290    -0.11300
C1250       C  0.24223290  0.63634130  0.08188490    -0.12800
C1251       C  0.18060857  0.66333088  0.16318376    -0.11300
C1252       C  0.16215021  0.66234903  0.18067812    -0.12800
C1253       C  0.12205918  0.74951390  0.25400962    -0.11300
C1254       C  0.12009204  0.72657421  0.24308260    -0.12800
C1255       C  0.18835831  0.81908010  0.33353393    -0.11300
C1256       C  0.16995546  0.81815702  0.31599046    -0.12800
C1257       C  0.24178923  0.84919457  0.41896236    -0.11300
C1258       C  0.25261623  0.86339648  0.43710356    -0.12800
C1259       C  0.32210684  0.66010420  0.33295227    -0.11300
C1260       C  0.33906902  0.65985260  0.31401913    -0.12800
C1261       C  0.25925737  0.72962645  0.37736357    -0.11300
C1262       C  0.24848743  0.75273454  0.37856773    -0.12800
C1263       C  0.33120396  0.70791015  0.42367491    -0.11300
C1264       C  0.34404314  0.72438756  0.43806628    -0.12800
C1265       C  0.12138261  0.23729175  0.74176138    -0.11300
C1266       C  0.11952328  0.24844270  0.76460184    -0.12800
C1267       C  0.32686593  0.06692577  0.77681646    -0.11300
C1268       C  0.34079655  0.05268358  0.76119683    -0.12800
C1269       C  0.18210647  0.15611073  0.66850251    -0.11300
C1270       C  0.16429541  0.17414848  0.67067704    -0.12800
C1271       C  0.24116384  0.11051358  0.73466929    -0.11300
C1272       C  0.25238949  0.11177332  0.75759580    -0.12800
C1273       C  0.23788583  0.07178740  0.63764206    -0.11300
C1274       C  0.25010120  0.05355233  0.62478260    -0.12800
C1275       C  0.32089404  0.41550227  0.71718388    -0.11300
C1276       C  0.33469898  0.42874289  0.73395611    -0.12800
C1277       C  0.15861535  0.31445915  0.82737042    -0.11300
C1278       C  0.17691105  0.33223191  0.82665161    -0.12800
C1279       C  0.24032742  0.37080112  0.76004271    -0.11300
C1280       C  0.25037740  0.36880378  0.73671356    -0.12800
C1281       C  0.23860832  0.41308073  0.85596516    -0.11300
C1282       C  0.25103660  0.43052463  0.86987812    -0.12800
C1283       C  0.31751852  0.15714361  0.82531473    -0.11300
C1284       C  0.33506795  0.17565852  0.82625477    -0.12800
C1285       C  0.41848264  0.15910194  0.78447512    -0.11300
C1286       C  0.43105644  0.14368183  0.76871193    -0.12800
C1287       C  0.41747565  0.23480369  0.85607826    -0.11300
C1288       C  0.43540360  0.24690087  0.86958728    -0.12800
C1289       C  0.33128904  0.30942263  0.66421981    -0.11300
C1290       C  0.31305349  0.32721944  0.66471456    -0.12800
C1291       C  0.37747010  0.23615675  0.75893598    -0.11300
C1292       C  0.37563995  0.24678737  0.73568652    -0.12800
C1293       C  0.42190828  0.31880624  0.71259494    -0.11300
C1294       C  0.43582421  0.33264009  0.72874029    -0.12800
C1295       C  0.43682874  0.23878158  0.63346493    -0.11300
C1296       C  0.41685482  0.25005705  0.64450739    -0.12800
C1297       C  0.05796014  0.24276627  0.63848572    -0.11300
C1298       C  0.07779128  0.23219968  0.65087272    -0.12800
C1299       C  0.07520512  0.32501939  0.78289994    -0.11300
C1300       C  0.06296613  0.33980198  0.76599637    -0.12800
C1301       C  0.85124343  0.22748017  0.42090888    -0.11300
C1302       C  0.86312882  0.23938296  0.44024863    -0.12800
C1303       C  0.73060831  0.33017724  0.43606152    -0.11300
C1304       C  0.71459688  0.31578023  0.42253989    -0.12800
C1305       C  0.85382445  0.41334282  0.23621184    -0.11300
C1306       C  0.86725766  0.43158558  0.24804391    -0.12800
C1307       C  0.72776601  0.42720630  0.33645248    -0.11300
C1308       C  0.71156316  0.41348457  0.32246468    -0.12800
C1309       C  0.06218588  0.61590394  0.25171084    -0.11300
C1310       C  0.08045670  0.62936704  0.23987518    -0.12800
C1311       C  0.06185151  0.75878206  0.34094486    -0.11300
C1312       C  0.07739336  0.77375365  0.32736446    -0.12800
C1313       C  0.24281314  0.43322738  0.63422600    -0.11300
C1314       C  0.25377562  0.41319754  0.64591853    -0.12800
C1315       C  0.14969175  0.42708106  0.76485830    -0.11300
C1316       C  0.16487193  0.41491403  0.78141323    -0.12800
C1317       C  0.26331067  0.63813400  0.41906022    -0.11300
C1318       C  0.25114367  0.62684714  0.43864463    -0.12800
C1319       C  0.15398487  0.75740897  0.42737310    -0.11300
C1320       C  0.16943142  0.77372789  0.41518948    -0.12800
C1321       C  0.92149913  0.20316288  0.67657502    -0.11300
C1322       C  0.93510069  0.21958724  0.66254551    -0.12800
C1323       C  0.87727377  0.24971939  0.75783978    -0.11300
C1324       C  0.87554891  0.22636209  0.74780352    -0.12800
C1325       C  0.91914882  0.34613721  0.75709228    -0.11300
C1326       C  0.93691549  0.36008583  0.74510086    -0.12800
C1327       C  0.65156519  0.22798396  0.93103361    -0.11300
C1328       C  0.66692996  0.21148525  0.91942868    -0.12800
C1329       C  0.82045521  0.31761395  0.83689373    -0.11300
C1330       C  0.83891034  0.31718567  0.81945580    -0.12800
C1331       C  0.75364004  0.25304413  0.87439496    -0.11300
C1332       C  0.74340622  0.22967473  0.87533504    -0.12800
C1333       C  0.75777410  0.34875352  0.91585733    -0.11300
C1334       C  0.74598531  0.36224240  0.93391172    -0.12800
C1335       C  0.57596079  0.27504546  0.67825752    -0.11300
C1336       C  0.56169050  0.25898529  0.66465654    -0.12800
C1337       C  0.55980285  0.35748589  0.75367334    -0.11300
C1338       C  0.57990690  0.34525639  0.74391243    -0.12800
C1339       C  0.65860142  0.16395437  0.82279649    -0.11300
C1340       C  0.67748563  0.16368908  0.83990948    -0.12800
C1341       C  0.62134128  0.23085443  0.75982396    -0.11300
C1342       C  0.62381188  0.25412073  0.74931613    -0.12800
C1343       C  0.57524066  0.21042632  0.83461148    -0.11300
C1344       C  0.56233020  0.22703032  0.84885062    -0.12800
C1345       C  0.57655123  0.13541604  0.76248467    -0.11300
C1346       C  0.55831954  0.12160877  0.75114228    -0.12800
C1347       C  0.83068997  0.15562536  0.68621911    -0.11300
C1348       C  0.81267229  0.15677006  0.66821349    -0.12800
C1349       C  0.82316421  0.20532017  0.57731818    -0.11300
C1350       C  0.83727717  0.22132015  0.56334593    -0.12800
C1351       C  0.74039681  0.12692898  0.56453843    -0.11300
C1352       C  0.75190921  0.13903329  0.58376019    -0.12800
C1353       C  0.68285762  0.32703421  0.66660456    -0.11300
C1354       C  0.66542013  0.32625374  0.68515385    -0.12800
C1355       C  0.74291777  0.25439240  0.62331981    -0.11300
C1356       C  0.75329720  0.23104460  0.62383601    -0.12800
C1357       C  0.67179733  0.27801976  0.57681082    -0.11300
C1358       C  0.65749310  0.26179991  0.56345374    -0.12800
C1359       C  0.74143866  0.34603124  0.57984082    -0.11300
C1360       C  0.75250046  0.35771082  0.55984940    -0.12800
C1361       C  0.65279999  0.92136213  0.23351645    -0.11300
C1362       C  0.66749542  0.90839559  0.21742902    -0.12800
C1363       C  0.74252854  0.86897704  0.24174926    -0.11300
C1364       C  0.75169489  0.87075497  0.26550875    -0.12800
C1365       C  0.75635728  0.91587658  0.36001089    -0.11300
C1366       C  0.74492458  0.93472314  0.37278721    -0.12800
C1367       C  0.92230571  0.66336145  0.21899595    -0.11300
C1368       C  0.93658696  0.64942851  0.23488802    -0.12800
C1369       C  0.83098902  0.81270465  0.33114238    -0.11300
C1370       C  0.81294378  0.83061042  0.33267534    -0.12800
C1371       C  0.87522722  0.74824701  0.26191586    -0.11300
C1372       C  0.87568209  0.73623691  0.23942823    -0.12800
C1373       C  0.91451642  0.75123245  0.35390392    -0.11300
C1374       C  0.93391582  0.73943239  0.36575584    -0.12800
C1375       C  0.67024944  0.56644148  0.27949197    -0.11300
C1376       C  0.65710885  0.55188009  0.26339335    -0.12800
C1377       C  0.74758338  0.55148316  0.36196149    -0.11300
C1378       C  0.73656923  0.57129337  0.34982692    -0.12800
C1379       C  0.81398449  0.65341486  0.16882589    -0.11300
C1380       C  0.83193271  0.67150855  0.17021750    -0.12800
C1381       C  0.74135873  0.61372273  0.25793969    -0.11300
C1382       C  0.75205095  0.61181579  0.23484707    -0.12800
C1383       C  0.82976034  0.57101093  0.21471326    -0.11300
C1384       C  0.84489722  0.55881098  0.23126508    -0.12800
C1385       C  0.74566550  0.55073626  0.12568238    -0.11300
C1386       C  0.75726934  0.56887771  0.13938034    -0.12800
C1387       C  0.68167434  0.82501954  0.17455806    -0.11300
C1388       C  0.66339196  0.80728073  0.17412150    -0.12800
C1389       C  0.57988954  0.82345122  0.21620687    -0.11300
C1390       C  0.56718871  0.83825735  0.23242522    -0.12800
C1391       C  0.56176667  0.73844978  0.12924259    -0.11300
C1392       C  0.58024628  0.74968533  0.14280870    -0.12800
C1393       C  0.65972626  0.67505654  0.33011457    -0.11300
C1394       C  0.67758015  0.65701641  0.32815655    -0.12800
C1395       C  0.61806869  0.73766200  0.26425347    -0.11300
C1396       C  0.61879930  0.74706847  0.24047212    -0.12800
C1397       C  0.57897180  0.65953411  0.28304537    -0.11300
C1398       C  0.56769119  0.64469123  0.26577245    -0.12800
C1399       C  0.55593892  0.74154846  0.37254849    -0.11300
C1400       C  0.57460814  0.73034610  0.35939237    -0.12800
C1401       C  0.21662374  0.65734943  0.92321998    -0.11300
C1402       C  0.23330729  0.64267061  0.93578291    -0.12800
C1403       C  0.26011307  0.74436447  0.87866363    -0.11300
C1404       C  0.23710535  0.73349144  0.88022066    -0.12800
C1405       C  0.35087503  0.75293971  0.92126940    -0.11300
C1406       C  0.36265373  0.74219487  0.94149869    -0.12800
C1407       C  0.23485238  0.92577268  0.64999710    -0.11300
C1408       C  0.21812380  0.91299814  0.66439103    -0.12800
C1409       C  0.32810495  0.82519197  0.81291414    -0.11300
C1410       C  0.32789790  0.80838179  0.83225845    -0.12800
C1411       C  0.26043477  0.86655147  0.74928620    -0.11300
C1412       C  0.23682597  0.86767431  0.73953905    -0.12800
C1413       C  0.35698226  0.90713502  0.75226909    -0.11300
C1414       C  0.37057921  0.92599181  0.74157405    -0.12800
C1415       C  0.28484855  0.66947769  0.57559812    -0.11300
C1416       C  0.26894562  0.65581548  0.56125151    -0.12800
C1417       C  0.35378708  0.73700185  0.58236212    -0.11300
C1418       C  0.36587134  0.74791381  0.56269695    -0.12800
C1419       C  0.17055057  0.81274283  0.65686980    -0.11300
C1420       C  0.17040491  0.83077149  0.67482363    -0.12800
C1421       C  0.23828067  0.75078918  0.61881560    -0.11300
C1422       C  0.26143862  0.74045324  0.62160873    -0.12800
C1423       C  0.23302819  0.84341660  0.56396462    -0.11300
C1424       C  0.21671134  0.82800108  0.57602649    -0.12800
C1425       C  0.13041007  0.74172326  0.55490359    -0.11300
C1426       C  0.14358301  0.75343197  0.57339205    -0.12800
C1427       C  0.17169632  0.65149354  0.82274817    -0.11300
C1428       C  0.17139415  0.66959603  0.84061122    -0.12800
C1429       C  0.21738060  0.56882924  0.83453453    -0.11300
C1430       C  0.23396268  0.55651603  0.84954026    -0.12800
C1431       C  0.14216397  0.57040949  0.76150553    -0.11300
C1432       C  0.12845286  0.55288476  0.74893328    -0.12800
C1433       C  0.33180976  0.65954448  0.68546492    -0.11300
C1434       C  0.33172637  0.67761123  0.66734485    -0.12800
C1435       C  0.26077883  0.61565405  0.74823107    -0.11300
C1436       C  0.23768601  0.61364223  0.75881534    -0.12800
C1437       C  0.28245581  0.56941785  0.67658166    -0.11300
C1438       C  0.26629896  0.55590604  0.66236043    -0.12800
C1439       C  0.36376857  0.55323078  0.75510027    -0.11300
C1440       C  0.35185036  0.57326558  0.74445584    -0.12800
C1441       C  0.07755336  0.25419666  0.86058372    -0.11300
C1442       C  0.05957848  0.24216513  0.87431115    -0.12800
C1443       C  0.93415614  0.25634349  0.84749104    -0.11300
C1444       C  0.92199417  0.27257862  0.83200795    -0.12800
C1445       C  0.06058570  0.15091684  0.73666514    -0.11300
C1446       C  0.07483254  0.16469781  0.72069278    -0.12800
C1447       C  0.91587502  0.13454786  0.74639003    -0.11300
C1448       C  0.93565133  0.12318055  0.75799469    -0.12800
C1449       C  0.86614065  0.23997256  0.06030377    -0.11300
C1450       C  0.85278478  0.25207485  0.07828735    -0.12800
C1451       C  0.84304872  0.25553439  0.93271323    -0.11300
C1452       C  0.82833429  0.27188842  0.91974456    -0.12800
C1453       C  0.73265335  0.14536912  0.06872757    -0.11300
C1454       C  0.71585272  0.16027860  0.08062886    -0.12800
C1455       C  0.73858530  0.13553688  0.92229525    -0.11300
C1456       C  0.74992205  0.12229493  0.94115356    -0.12800
C1457       C  0.26125189  0.06904695  0.84816989    -0.11300
C1458       C  0.24988692  0.04909029  0.85979877    -0.12800
C1459       C  0.26588789  0.92085118  0.83866630    -0.11300
C1460       C  0.28216588  0.90768224  0.82432854    -0.12800
C1461       C  0.14836437  0.05938957  0.72664878    -0.11300
C1462       C  0.16328124  0.07211621  0.71032663    -0.12800
C1463       C  0.14209183  0.91283990  0.73563093    -0.11300
C1464       C  0.12884708  0.93142484  0.74710740    -0.12800
C1465       C  0.24240571  0.86376380  0.06094783    -0.11300
C1466       C  0.25382309  0.85098379  0.08003375    -0.12800
C1467       C  0.26382056  0.83187588  0.93696188    -0.11300
C1468       C  0.27987975  0.81839178  0.92279944    -0.12800
C1469       C  0.15364219  0.72663462  0.06892845    -0.11300
C1470       C  0.16901427  0.71063197  0.08155637    -0.12800
C1471       C  0.14137391  0.72973422  0.92234051    -0.11300
C1472       C  0.12794239  0.74123764  0.94070179    -0.12800
C1473       C  0.86915912  0.04698373  0.24747880    -0.11300
C1474       C  0.85625919  0.06556273  0.25927518    -0.12800
C1475       C  0.82928978  0.91174560  0.28554509    -0.11300
C1476       C  0.84483623  0.92285593  0.26864254    -0.12800
C1477       C  0.71915145  0.06613390  0.17086711    -0.11300
C1478       C  0.73496613  0.05145105  0.15760092    -0.12800
C1479       C  0.74132767  0.90715258  0.14412359    -0.11300
C1480       C  0.75315004  0.92561254  0.13089347    -0.12800
C1481       C  0.08423349  0.84209568  0.25811821    -0.11300
C1482       C  0.06493628  0.85447098  0.24667532    -0.12800
C1483       C  0.92330167  0.81975864  0.28554749    -0.11300
C1484       C  0.93877199  0.83267683  0.26998232    -0.12800
C1485       C  0.07792325  0.70459502  0.16660109    -0.11300
C1486       C  0.06510688  0.72114971  0.15192145    -0.12800
C1487       C  0.93688974  0.74213260  0.13568091    -0.11300
C1488       C  0.91755755  0.73084451  0.14821254    -0.12800
loop_ 
_geom_bond_atom_site_label_1 
_geom_bond_atom_site_label_2 
_geom_bond_distance 
_geom_bond_site_symmetry_2 
_ccdc_geom_bond_type 
In1           O3   2.251       .  S
In1           O4   2.245       .  S
In1          O12   2.247       .  S
In1           O6   2.279       .  S
In1           O8   2.287   1_455  S
In1           O9   2.236       .  S
In1          O10   2.226   1_455  S
In1          O13   2.249   1_455  S
C2            O8   1.269       .  A
C2           O10   1.257       .  A
C2         C1487   1.446       .  S
O3           C11   1.259       .  A
O4           C11   1.259       .  A
C5           O12   1.256       .  A
C5            O6   1.261       .  A
C5           C57   1.473       .  S
C7            O9   1.261       .  A
C7           O13   1.263   1_455  A
C7           C20   1.461   1_455  S
C11        C1486   1.434       .  S
In14         O16   2.250       .  S
In14         O17   2.238       .  S
In14         O25   2.247       .  S
In14         O19   2.289       .  S
In14         O21   2.284   1_655  S
In14         O22   2.228       .  S
In14         O23   2.216   1_655  S
In14         O26   2.255   1_655  S
C15          O21   1.269       .  A
C15          O23   1.256       .  A
C15        C1482   1.441       .  S
O16          C24   1.258       .  A
O17          C24   1.258       .  A
C18          O25   1.256       .  A
C18          O19   1.262       .  A
C18          C44   1.476       .  S
C20          O22   1.260       .  A
C20          O26   1.264   1_655  A
C24        C1484   1.430       .  S
In27         O29   2.260   1_545  S
In27         O30   2.234       .  S
In27         O38   2.248       .  S
In27         O32   2.284       .  S
In27         O34   2.276   1_545  S
In27         O35   2.245       .  S
In27         O36   2.213   1_545  S
In27         O39   2.247       .  S
C28          O34   1.267       .  A
C28          O36   1.256       .  A
C28        C1480   1.436       .  S
O29          C37   1.263       .  A
O30          C37   1.260   1_545  A
C31          O38   1.257       .  A
C31          O32   1.261       .  A
C31         C109   1.475       .  S
C33          O35   1.258       .  A
C33          O39   1.258       .  A
C33        C1478   1.430       .  S
C37          C50   1.465       .  S
In40         O42   2.255       .  S
In40         O43   2.247       .  S
In40         O51   2.249       .  S
In40         O45   2.288       .  S
In40         O47   2.284   1_565  S
In40         O48   2.248       .  S
In40         O49   2.220       .  S
In40         O52   2.251       .  S
C41          O47   1.268       .  A
C41          O49   1.256   1_545  A
C41        C1473   1.441       .  S
O42          C50   1.262       .  A
O43          C50   1.261       .  A
C44          O51   1.257       .  A
C44          O45   1.261       .  A
C46          O48   1.259       .  A
C46          O52   1.258       .  A
C46        C1476   1.434       .  S
In53         O55   2.252   1_554  S
In53         O56   2.251       .  S
In53         O64   2.252       .  S
In53         O58   2.278       .  S
In53         O60   2.283   1_554  S
In53         O61   2.248       .  S
In53         O62   2.221   1_554  S
In53         O65   2.252       .  S
C54          O60   1.267       .  A
C54          O62   1.257       .  A
C54        C1472   1.441       .  S
O55          C63   1.261   1_556  A
O56          C63   1.261       .  A
C57          O64   1.257       .  A
C57          O58   1.260       .  A
C59          O61   1.258       .  A
C59          O65   1.258       .  A
C59        C1469   1.432       .  S
C63          C76   1.467   1_554  S
In66         O68   2.264   1_556  S
In66         O69   2.242       .  S
In66         O77   2.260       .  S
In66         O71   2.292       .  S
In66         O73   2.282   1_556  S
In66         O74   2.244       .  S
In66         O75   2.216   1_556  S
In66         O78   2.242       .  S
C67          O73   1.268       .  A
C67          O75   1.256       .  A
C67        C1465   1.438       .  S
O68          C76   1.262   1_554  A
O69          C76   1.261       .  A
C70          O77   1.257       .  A
C70          O71   1.261       .  A
C70          C96   1.482       .  S
C72          O74   1.259       .  A
C72          O78   1.258       .  A
C72        C1467   1.428       .  S
In79         O81   2.257       .  S
In79         O82   2.240       .  S
In79         O90   2.245       .  S
In79         O84   2.287       .  S
In79         O86   2.287   1_545  S
In79         O87   2.243       .  S
In79         O88   2.223   1_545  S
In79         O91   2.257   1_545  S
C80          O86   1.268       .  A
C80          O88   1.257       .  A
C80        C1464   1.444       .  S
O81          C89   1.259       .  A
O82          C89   1.259       .  A
C83          O90   1.257       .  A
C83          O84   1.262       .  A
C83         C135   1.476       .  S
C85          O87   1.261   1_565  A
C85          O91   1.262       .  A
C85          C98   1.467       .  S
C89        C1461   1.433       .  S
In92         O94   2.252       .  S
In92         O95   2.247       .  S
In92        O103   2.258       .  S
In92         O97   2.292       .  S
In92         O99   2.287   1_565  S
In92        O100   2.245       .  S
In92        O101   2.234   1_565  S
In92        O104   2.260   1_565  S
C93          O99   1.268       .  A
C93         O101   1.257       .  A
C93        C1458   1.448       .  S
O94         C102   1.258       .  A
O95         C102   1.259       .  A
C96         O103   1.258       .  A
C96          O97   1.263       .  A
C98         O100   1.260       .  A
C98         O104   1.262   1_565  A
C102       C1459   1.433       .  S
In105       O107   2.251       .  S
In105       O108   2.253       .  S
In105       O116   2.250       .  S
In105       O110   2.287       .  S
In105       O112   2.281   1_554  S
In105       O113   2.238       .  S
In105       O114   2.222   1_554  S
In105       O117   2.259   1_554  S
C106        O112   1.268       .  A
C106        O114   1.257       .  A
C106       C1456   1.441       .  S
O107        C115   1.259       .  A
O108        C115   1.259       .  A
C109        O116   1.256       .  A
C109        O110   1.261       .  A
C111        O113   1.260       .  A
C111        O117   1.262   1_554  A
C111        C124   1.464   1_554  S
C115       C1453   1.436       .  S
In118       O120   2.251       .  S
In118       O121   2.245       .  S
In118       O129   2.248       .  S
In118       O123   2.277       .  S
In118       O125   2.281   1_556  S
In118       O126   2.246       .  S
In118       O127   2.221   1_556  S
In118       O130   2.249   1_556  S
C119        O125   1.267       .  A
C119        O127   1.256       .  A
C119       C1449   1.439       .  S
O120        C128   1.259       .  A
O121        C128   1.259       .  A
C122        O129   1.257       .  A
C122        O123   1.260       .  A
C122        C148   1.472       .  S
C124        O126   1.261       .  A
C124        O130   1.261   1_556  A
C128       C1451   1.432       .  S
In131       O133   2.251   1_455  S
In131       O134   2.238       .  S
In131       O142   2.251       .  S
In131       O136   2.284       .  S
In131       O138   2.278   1_455  S
In131       O139   2.240       .  S
In131       O140   2.221   1_455  S
In131       O143   2.245       .  S
C132        O138   1.267       .  A
C132        O140   1.256       .  A
C132       C1448   1.439       .  S
O133        C141   1.263   1_655  A
O134        C141   1.260       .  A
C135        O142   1.258       .  A
C135        O136   1.260       .  A
C137        O139   1.258       .  A
C137        O143   1.258       .  A
C137       C1445   1.428       .  S
C141        C154   1.463   1_455  S
In144       O146   2.255   1_655  S
In144       O147   2.237       .  S
In144       O155   2.246       .  S
In144       O149   2.277       .  S
In144       O151   2.285   1_655  S
In144       O152   2.241       .  S
In144       O153   2.218   1_655  S
In144       O156   2.246       .  S
C145        O151   1.269       .  A
C145        O153   1.256       .  A
C145       C1442   1.441       .  S
O146        C154   1.262   1_455  A
O147        C154   1.260       .  A
C148        O155   1.256       .  A
C148        O149   1.261       .  A
C150        O152   1.259       .  A
C150        O156   1.258       .  A
C150       C1443   1.429       .  S
C157        C158   1.536       .  S
C157        C163   1.534       .  S
C157        C161   1.532       .  S
C157       C1433   1.464       .  S
C158        H165   1.086       .  S
C158        C159   1.364       .  D
C159        C160   1.538       .  S
C159       C1435   1.444       .  S
C160        C164   1.532       .  S
C160        C162   1.546       .  S
C160        H166   1.112       .  S
C161        H167   1.086       .  S
C161        C162   1.367       .  D
C162       C1440   1.445       .  S
C163        H168   1.083       .  S
C163        C164   1.355       .  D
C164       C1437   1.437       .  S
C169        C170   1.539       .  S
C169        C175   1.538       .  S
C169        C173   1.536       .  S
C169       C1431   1.476       .  S
C170        H177   1.087       .  S
C170        C171   1.364       .  D
C171        C172   1.530       .  S
C171       C1429   1.439       .  S
C172        C176   1.533       .  S
C172        C174   1.538       .  S
C172        H178   1.112       .  S
C173        H179   1.086       .  S
C173        C174   1.367       .  D
C174       C1427   1.443       .  S
C175        H180   1.087       .  S
C175        C176   1.365       .  D
C176       C1436   1.445       .  S
C181        C182   1.538       .  S
C181        C187   1.539       .  S
C181        C185   1.537       .  S
C181       C1426   1.475       .  S
C182        H189   1.086       .  S
C182        C183   1.368       .  D
C183        C184   1.537       .  S
C183       C1419   1.443       .  S
C184        C188   1.532       .  S
C184        C186   1.529       .  S
C184        H190   1.112       .  S
C185        H191   1.087       .  S
C185        C186   1.362       .  D
C186       C1424   1.437       .  S
C187        H192   1.086       .  S
C187        C188   1.366       .  D
C188       C1421   1.445       .  S
C193        C194   1.530       .  S
C193        C199   1.535       .  S
C193        C197   1.537       .  S
C193       C1434   1.464       .  S
C194        H201   1.086       .  S
C194        C195   1.365       .  D
C195        C196   1.544       .  S
C195       C1417   1.441       .  S
C196        C200   1.530       .  S
C196        C198   1.537       .  S
C196        H202   1.112       .  S
C197        H203   1.087       .  S
C197        C198   1.364       .  D
C198       C1422   1.445       .  S
C199        H204   1.083       .  S
C199        C200   1.356       .  D
C200       C1415   1.437       .  S
C205        C206   1.537       .  S
C205        C211   1.539       .  S
C205        C209   1.532       .  S
C205       C1413   1.470       .  S
C206        H213   1.087       .  S
C206        C207   1.361       .  D
C207        C208   1.532       .  S
C207       C1460   1.440       .  S
C208        C212   1.536       .  S
C208        C210   1.543       .  S
C208        H214   1.112       .  S
C209        H215   1.086       .  S
C209        C210   1.365       .  D
C210       C1409   1.442       .  S
C211        H216   1.086       .  S
C211        C212   1.367       .  D
C212       C1411   1.448       .  S
C217        C218   1.537       .  S
C217        C223   1.540       .  S
C217        C221   1.537       .  S
C217       C1463   1.478       .  S
C218        H225   1.087       .  S
C218        C219   1.362       .  D
C219        C220   1.530       .  S
C219       C1408   1.439       .  S
C220        C224   1.533       .  S
C220        C222   1.539       .  S
C220        H226   1.112       .  S
C221        H227   1.086       .  S
C221        C222   1.368       .  D
C222       C1420   1.444       .  S
C223        H228   1.086       .  S
C223        C224   1.367       .  D
C224       C1412   1.448       .  S
C229        C230   1.541       .  S
C229        C235   1.532       .  S
C229        C233   1.533       .  S
C229       C1410   1.468       .  S
C230        H237   1.086       .  S
C230        C231   1.372       .  D
C231        C232   1.544       .  S
C231       C1405   1.455       .  S
C232        C236   1.531       .  S
C232        C234   1.538       .  S
C232        H238   1.112       .  S
C233        H239   1.087       .  S
C233        C234   1.362       .  D
C234       C1403   1.443       .  S
C235        H240   1.088       .  S
C235        C236   1.357       .  D
C236       C1468   1.434       .  S
C241        C242   1.537       .  S
C241        C247   1.538       .  S
C241        C245   1.538       .  S
C241       C1471   1.476       .  S
C242        H249   1.086       .  S
C242        C243   1.368       .  D
C243        C244   1.537       .  S
C243       C1428   1.442       .  S
C244        C248   1.532       .  S
C244        C246   1.529       .  S
C244        H250   1.112       .  S
C245        H251   1.087       .  S
C245        C246   1.362       .  D
C246       C1401   1.439       .  S
C247        H252   1.087       .  S
C247        C248   1.365       .  D
C248       C1404   1.443       .  S
C253        C254   1.538       .  S
C253        C259   1.540       .  S
C253        C257   1.536       .  S
C253       C1400   1.471       .  S
C254        H261   1.087       .  S
C254        C255   1.363       .  D
C255        C256   1.529       .  S
C255       C1397   1.439       .  S
C256        C260   1.530       .  S
C256        C258   1.536       .  S
C256        H262   1.112       .  S
C257        H263   1.086       .  S
C257        C258   1.366       .  D
C258       C1393   1.439       .  S
C259        H264   1.087       .  S
C259        C260   1.366       .  D
C260       C1395   1.443       .  S
C265        C266   1.538       .  S
C265        C271   1.539       .  S
C265        C269   1.535       .  S
C265       C1392   1.473       .  S
C266        H273   1.087       .  S
C266        C267   1.362       .  D
C267        C268   1.529       .  S
C267       C1389   1.439       .  S
C268        C272   1.531       .  S
C268        C270   1.536       .  S
C268        H274   1.112       .  S
C269        H275   1.086       .  S
C269        C270   1.367       .  D
C270       C1388   1.439       .  S
C271        H276   1.086       .  S
C271        C272   1.366       .  D
C272       C1396   1.443       .  S
C277        C278   1.536       .  S
C277        C283   1.539       .  S
C277        C281   1.537       .  S
C277       C1386   1.473       .  S
C278        H285   1.086       .  S
C278        C279   1.367       .  D
C279        C280   1.539       .  S
C279       C1379   1.443       .  S
C280        C284   1.533       .  S
C280        C282   1.531       .  S
C280        H286   1.112       .  S
C281        H287   1.087       .  S
C281        C282   1.362       .  D
C282       C1383   1.439       .  S
C283        H288   1.086       .  S
C283        C284   1.366       .  D
C284       C1382   1.447       .  S
C289        C290   1.536       .  S
C289        C295   1.533       .  S
C289        C293   1.537       .  S
C289       C1394   1.466       .  S
C290        H297   1.086       .  S
C290        C291   1.368       .  D
C291        C292   1.545       .  S
C291       C1378   1.451       .  S
C292        C296   1.532       .  S
C292        C294   1.539       .  S
C292        H298   1.112       .  S
C293        H299   1.087       .  S
C293        C294   1.365       .  D
C294       C1381   1.447       .  S
C295        H300   1.087       .  S
C295        C296   1.358       .  D
C296       C1375   1.435       .  S
C301        C302   1.537       .  S
C301        C307   1.533       .  S
C301        C305   1.535       .  S
C301       C1369   1.467       .  S
C302        H309   1.087       .  S
C302        C303   1.365       .  D
C303        C304   1.537       .  S
C303       C1371   1.447       .  S
C304        C308   1.532       .  S
C304        C306   1.544       .  S
C304        H310   1.112       .  S
C305        H311   1.086       .  S
C305        C306   1.368       .  D
C306       C1373   1.448       .  S
C307        H312   1.087       .  S
C307        C308   1.358       .  D
C308       C1483   1.436       .  S
C313        C314   1.535       .  S
C313        C319   1.531       .  S
C313        C317   1.537       .  S
C313       C1380   1.468       .  S
C314        H321   1.087       .  S
C314        C315   1.364       .  D
C315        C316   1.540       .  S
C315       C1372   1.447       .  S
C316        C320   1.534       .  S
C316        C318   1.548       .  S
C316        H322   1.112       .  S
C317        H323   1.086       .  S
C317        C318   1.369       .  D
C318       C1488   1.454       .  S
C319        H324   1.088       .  S
C319        C320   1.357       .  D
C320       C1367   1.436       .  S
C325        C326   1.537       .  S
C325        C331   1.540       .  S
C325        C329   1.538       .  S
C325       C1365   1.473       .  S
C326        H333   1.086       .  S
C326        C327   1.367       .  D
C327        C328   1.537       .  S
C327       C1370   1.440       .  S
C328        C332   1.530       .  S
C328        C330   1.530       .  S
C328        H334   1.112       .  S
C329        H335   1.087       .  S
C329        C330   1.362       .  D
C330       C1475   1.441       .  S
C331        H336   1.086       .  S
C331        C332   1.366       .  D
C332       C1364   1.443       .  S
C337        C338   1.533       .  S
C337        C343   1.538       .  S
C337        C341   1.538       .  S
C337       C1479   1.470       .  S
C338        H345   1.086       .  S
C338        C339   1.366       .  D
C339        C340   1.539       .  S
C339       C1387   1.439       .  S
C340        C344   1.533       .  S
C340        C342   1.529       .  S
C340        H346   1.112       .  S
C341        H347   1.087       .  S
C341        C342   1.362       .  D
C342       C1362   1.438       .  S
C343        H348   1.087       .  S
C343        C344   1.365       .  D
C344       C1363   1.444       .  S
C349        C350   1.534       .  S
C349        C355   1.535       .  S
C349        C353   1.534       .  S
C349       C1353   1.468       .  S
C350        H357   1.087       .  S
C350        C351   1.362       .  D
C351        C352   1.538       .  S
C351       C1355   1.444       .  S
C352        C356   1.532       .  S
C352        C354   1.548       .  S
C352        H358   1.112       .  S
C353        H359   1.086       .  S
C353        C354   1.369       .  D
C354       C1359   1.450       .  S
C355        H360   1.083       .  S
C355        C356   1.356       .  D
C356       C1357   1.438       .  S
C361        C362   1.537       .  S
C361        C367   1.535       .  S
C361        C365   1.529       .  S
C361       C1348   1.466       .  S
C362        H369   1.087       .  S
C362        C363   1.365       .  D
C363        C364   1.536       .  S
C363       C1356   1.444       .  S
C364        C368   1.532       .  S
C364        C366   1.546       .  S
C364        H370   1.112       .  S
C365        H371   1.086       .  S
C365        C366   1.365       .  D
C366       C1352   1.442       .  S
C367        H372   1.083       .  S
C367        C368   1.356       .  D
C368       C1349   1.437       .  S
C373        C374   1.534       .  S
C373        C379   1.540       .  S
C373        C377   1.537       .  S
C373       C1345   1.473       .  S
C374        H381   1.086       .  S
C374        C375   1.366       .  D
C375        C376   1.538       .  S
C375       C1339   1.440       .  S
C376        C380   1.532       .  S
C376        C378   1.532       .  S
C376        H382   1.112       .  S
C377        H383   1.087       .  S
C377        C378   1.362       .  D
C378       C1343   1.441       .  S
C379        H384   1.086       .  S
C379        C380   1.367       .  D
C380       C1341   1.445       .  S
C385        C386   1.532       .  S
C385        C391   1.535       .  S
C385        C389   1.538       .  S
C385       C1354   1.469       .  S
C386        H393   1.086       .  S
C386        C387   1.366       .  D
C387        C388   1.546       .  S
C387       C1338   1.446       .  S
C388        C392   1.531       .  S
C388        C390   1.538       .  S
C388        H394   1.112       .  S
C389        H395   1.086       .  S
C389        C390   1.366       .  D
C390       C1342   1.445       .  S
C391        H396   1.083       .  S
C391        C392   1.356       .  D
C392       C1335   1.439       .  S
C397        C398   1.538       .  S
C397        C403   1.537       .  S
C397        C401   1.534       .  S
C397       C1333   1.471       .  S
C398        H405   1.087       .  S
C398        C399   1.362       .  D
C399        C400   1.529       .  S
C399       C1452   1.439       .  S
C400        C404   1.532       .  S
C400        C402   1.536       .  S
C400        H406   1.112       .  S
C401        H407   1.086       .  S
C401        C402   1.367       .  D
C402       C1329   1.438       .  S
C403        H408   1.087       .  S
C403        C404   1.365       .  D
C404       C1331   1.441       .  S
C409        C410   1.538       .  S
C409        C415   1.538       .  S
C409        C413   1.538       .  S
C409       C1455   1.475       .  S
C410        H417   1.087       .  S
C410        C411   1.362       .  D
C411        C412   1.528       .  S
C411       C1328   1.437       .  S
C412        C416   1.531       .  S
C412        C414   1.535       .  S
C412        H418   1.112       .  S
C413        H419   1.086       .  S
C413        C414   1.368       .  D
C414       C1340   1.439       .  S
C415        H420   1.087       .  S
C415        C416   1.365       .  D
C416       C1332   1.441       .  S
C421        C422   1.534       .  S
C421        C427   1.539       .  S
C421        C425   1.538       .  S
C421       C1325   1.472       .  S
C422        H429   1.086       .  S
C422        C423   1.365       .  D
C423        C424   1.537       .  S
C423       C1330   1.438       .  S
C424        C428   1.531       .  S
C424        C426   1.528       .  S
C424        H430   1.112       .  S
C425        H431   1.087       .  S
C425        C426   1.362       .  D
C426       C1444   1.436       .  S
C427        H432   1.086       .  S
C427        C428   1.366       .  D
C428       C1323   1.443       .  S
C433        C434   1.534       .  S
C433        C439   1.534       .  S
C433        C437   1.535       .  S
C433       C1347   1.465       .  S
C434        H441   1.086       .  S
C434        C435   1.369       .  D
C435        C436   1.546       .  S
C435       C1447   1.446       .  S
C436        C440   1.532       .  S
C436        C438   1.537       .  S
C436        H442   1.112       .  S
C437        H443   1.087       .  S
C437        C438   1.362       .  D
C438       C1324   1.443       .  S
C439        H444   1.083       .  S
C439        C440   1.355       .  D
C440       C1321   1.438       .  S
In445       O447   2.258       .  S
In445       O448   2.250       .  S
In445       O456   2.256       .  S
In445       O450   2.282       .  S
In445       O452   2.281       .  S
In445       O453   2.252       .  S
In445       O454   2.221       .  S
In445       O457   2.254       .  S
C446        O452   1.267       .  A
C446        O454   1.257       .  A
C446       C1425   1.440       .  S
O447        C455   1.262       .  A
O448        C455   1.261       .  A
C449        O456   1.258       .  A
C449        O450   1.260       .  A
C449        C501   1.476       .  S
C451        O453   1.259       .  A
C451        O457   1.258       .  A
C451       C1319   1.436       .  S
C455        C468   1.468       .  S
In458       O460   2.267       .  S
In458       O461   2.242       .  S
In458       O469   2.247       .  S
In458       O463   2.302       .  S
In458       O465   2.287       .  S
In458       O466   2.241       .  S
In458       O467   2.225       .  S
In458       O470   2.249       .  S
C459        O465   1.269       .  A
C459        O467   1.256       .  A
C459       C1318   1.444       .  S
O460        C468   1.263       .  A
O461        C468   1.259       .  A
C462        O469   1.257       .  A
C462        O463   1.264       .  A
C462        C488   1.482       .  S
C464        O466   1.259       .  A
C464        O470   1.259       .  A
C464       C1416   1.431       .  S
In471       O473   2.252       .  S
In471       O474   2.246       .  S
In471       O482   2.248       .  S
In471       O476   2.278       .  S
In471       O478   2.286       .  S
In471       O479   2.240       .  S
In471       O480   2.215       .  S
In471       O483   2.255       .  S
C472        O478   1.269       .  A
C472        O480   1.256       .  A
C472       C1432   1.440       .  S
O473        C481   1.258       .  A
O474        C481   1.259       .  A
C475        O482   1.257       .  A
C475        O476   1.261       .  A
C475        C579   1.473       .  S
C477        O479   1.261       .  A
C477        O483   1.263       .  A
C477        C490   1.465       .  S
C481       C1315   1.433       .  S
In484       O486   2.250       .  S
In484       O487   2.240       .  S
In484       O495   2.246       .  S
In484       O489   2.300       .  S
In484       O491   2.281       .  S
In484       O492   2.239       .  S
In484       O493   2.220       .  S
In484       O496   2.259       .  S
C485        O491   1.269       .  A
C485        O493   1.256       .  A
C485       C1313   1.439       .  S
O486        C494   1.259       .  A
O487        C494   1.258       .  A
C488        O495   1.257       .  A
C488        O489   1.263       .  A
C490        O492   1.260       .  A
C490        O496   1.262       .  A
C494       C1438   1.431       .  S
In497       O499   2.251       .  S
In497       O500   2.240       .  S
In497       O508   2.252       .  S
In497       O502   2.284       .  S
In497       O504   2.284   1_455  S
In497       O505   2.232       .  S
In497       O506   2.221   1_455  S
In497       O509   2.254   1_455  S
C498        O504   1.268       .  A
C498        O506   1.256       .  A
C498       C1374   1.440       .  S
O499        C507   1.259       .  A
O500        C507   1.258       .  A
C501        O508   1.256       .  A
C501        O502   1.261       .  A
C503        O505   1.260       .  A
C503        O509   1.263   1_455  A
C503        C516   1.463   1_455  S
C507       C1311   1.431       .  S
In510       O512   2.248       .  S
In510       O513   2.245       .  S
In510       O521   2.261       .  S
In510       O515   2.276       .  S
In510       O517   2.286   1_655  S
In510       O518   2.241       .  S
In510       O519   2.218   1_655  S
In510       O522   2.250   1_655  S
C511        O517   1.267       .  A
C511        O519   1.255       .  A
C511       C1309   1.439       .  S
O512        C520   1.258       .  A
O513        C520   1.257       .  A
C514        O521   1.258       .  A
C514        O515   1.260       .  A
C514        C540   1.476       .  S
C516        O518   1.261       .  A
C516        O522   1.262   1_655  A
C520       C1368   1.430       .  S
In523       O525   2.258       .  S
In523       O526   2.243       .  S
In523       O534   2.253       .  S
In523       O528   2.301       .  S
In523       O530   2.286       .  S
In523       O531   2.243       .  S
In523       O532   2.225       .  S
In523       O535   2.250       .  S
C524        O530   1.269       .  A
C524        O532   1.255       .  A
C524       C1377   1.443       .  S
O525        C533   1.262       .  A
O526        C533   1.261       .  A
C527        O534   1.257       .  A
C527        O528   1.263       .  A
C527        C553   1.482       .  S
C529        O531   1.259       .  A
C529        O535   1.259       .  A
C529       C1307   1.432       .  S
C533        C546   1.467       .  S
In536       O538   2.258       .  S
In536       O539   2.246       .  S
In536       O547   2.260       .  S
In536       O541   2.278       .  S
In536       O543   2.284       .  S
In536       O544   2.243       .  S
In536       O545   2.221       .  S
In536       O548   2.252       .  S
C537        O543   1.268       .  A
C537        O545   1.256       .  A
C537       C1306   1.441       .  S
O538        C546   1.262       .  A
O539        C546   1.261       .  A
C540        O547   1.258       .  A
C540        O541   1.260       .  A
C542        O544   1.258       .  A
C542        O548   1.258       .  A
C542       C1384   1.432       .  S
In549       O551   2.250       .  S
In549       O552   2.243       .  S
In549       O560   2.252       .  S
In549       O554   2.300       .  S
In549       O556   2.286       .  S
In549       O557   2.246       .  S
In549       O558   2.223       .  S
In549       O561   2.260       .  S
C550        O556   1.269       .  A
C550        O558   1.256       .  A
C550       C1360   1.443       .  S
O551        C559   1.259       .  A
O552        C559   1.258       .  A
C553        O560   1.257       .  A
C553        O554   1.262       .  A
C555        O557   1.260       .  A
C555        O561   1.262       .  A
C555        C568   1.468       .  S
C559       C1303   1.432       .  S
In562       O564   2.247       .  S
In562       O565   2.241       .  S
In562       O573   2.251       .  S
In562       O567   2.309       .  S
In562       O569   2.292       .  S
In562       O570   2.242       .  S
In562       O571   2.228       .  S
In562       O574   2.269       .  S
C563        O569   1.270       .  A
C563        O571   1.256       .  A
C563       C1302   1.448       .  S
O564        C572   1.259       .  A
O565        C572   1.259       .  A
C566        O573   1.257       .  A
C566        O567   1.264       .  A
C566        C592   1.486       .  S
C568        O570   1.259       .  A
C568        O574   1.263       .  A
C572       C1350   1.431       .  S
In575       O577   2.253   1_455  S
In575       O578   2.244       .  S
In575       O586   2.251       .  S
In575       O580   2.278       .  S
In575       O582   2.282   1_455  S
In575       O583   2.247       .  S
In575       O584   2.213   1_455  S
In575       O587   2.252       .  S
C576        O582   1.268       .  A
C576        O584   1.256       .  A
C576       C1326   1.437       .  S
O577        C585   1.262   1_655  A
O578        C585   1.262       .  A
C579        O586   1.258       .  A
C579        O580   1.260       .  A
C581        O583   1.259       .  A
C581        O587   1.259       .  A
C581       C1300   1.434       .  S
C585        C598   1.466   1_455  S
In588       O590   2.262   1_655  S
In588       O591   2.242       .  S
In588       O599   2.251       .  S
In588       O593   2.308       .  S
In588       O595   2.286   1_655  S
In588       O596   2.245       .  S
In588       O597   2.225   1_655  S
In588       O600   2.249       .  S
C589        O595   1.270       .  A
C589        O597   1.256       .  A
C589       C1297   1.444       .  S
O590        C598   1.262   1_455  A
O591        C598   1.261       .  A
C592        O599   1.257       .  A
C592        O593   1.264       .  A
C594        O596   1.260       .  A
C594        O600   1.260       .  A
C594       C1322   1.433       .  S
C601        C602   1.534       .  S
C601        C607   1.535       .  S
C601        C605   1.537       .  S
C601       C1289   1.467       .  S
C602        H609   1.086       .  S
C602        C603   1.368       .  D
C603        C604   1.545       .  S
C603       C1296   1.446       .  S
C604        C608   1.532       .  S
C604        C606   1.536       .  S
C604        H610   1.112       .  S
C605        H611   1.087       .  S
C605        C606   1.363       .  D
C606       C1292   1.445       .  S
C607        H612   1.084       .  S
C607        C608   1.355       .  D
C608       C1293   1.437       .  S
C613        C614   1.535       .  S
C613        C619   1.538       .  S
C613        C617   1.538       .  S
C613       C1287   1.471       .  S
C614        H621   1.086       .  S
C614        C615   1.366       .  D
C615        C616   1.540       .  S
C615       C1284   1.442       .  S
C616        C620   1.534       .  S
C616        C618   1.532       .  S
C616        H622   1.112       .  S
C617        H623   1.087       .  S
C617        C618   1.362       .  D
C618       C1285   1.440       .  S
C619        H624   1.086       .  S
C619        C620   1.365       .  D
C620       C1291   1.445       .  S
C625        C626   1.539       .  S
C625        C631   1.539       .  S
C625        C629   1.536       .  S
C625       C1281   1.475       .  S
C626        H633   1.087       .  S
C626        C627   1.364       .  D
C627        C628   1.529       .  S
C627       C1316   1.440       .  S
C628        C632   1.532       .  S
C628        C630   1.537       .  S
C628        H634   1.112       .  S
C629        H635   1.086       .  S
C629        C630   1.367       .  D
C630       C1278   1.442       .  S
C631        H636   1.086       .  S
C631        C632   1.366       .  D
C632       C1279   1.444       .  S
C637        C638   1.537       .  S
C637        C643   1.535       .  S
C637        C641   1.532       .  S
C637       C1290   1.467       .  S
C638        H645   1.087       .  S
C638        C639   1.365       .  D
C639        C640   1.536       .  S
C639       C1280   1.444       .  S
C640        C644   1.532       .  S
C640        C642   1.547       .  S
C640        H646   1.112       .  S
C641        H647   1.086       .  S
C641        C642   1.366       .  D
C642       C1314   1.447       .  S
C643        H648   1.084       .  S
C643        C644   1.356       .  D
C644       C1275   1.440       .  S
C649        C650   1.537       .  S
C649        C655   1.538       .  S
C649        C653   1.535       .  S
C649       C1273   1.470       .  S
C650        H657   1.087       .  S
C650        C651   1.362       .  D
C651        C652   1.531       .  S
C651       C1462   1.440       .  S
C652        C656   1.533       .  S
C652        C654   1.540       .  S
C652        H658   1.112       .  S
C653        H659   1.086       .  S
C653        C654   1.366       .  D
C654       C1269   1.439       .  S
C655        H660   1.087       .  S
C655        C656   1.364       .  D
C656       C1271   1.446       .  S
C661        C662   1.535       .  S
C661        C667   1.532       .  S
C661        C665   1.540       .  S
C661       C1283   1.468       .  S
C662        H669   1.087       .  S
C662        C663   1.364       .  D
C663        C664   1.538       .  S
C663       C1272   1.445       .  S
C664        C668   1.533       .  S
C664        C666   1.545       .  S
C664        H670   1.112       .  S
C665        H671   1.086       .  S
C665        C666   1.371       .  D
C666       C1457   1.454       .  S
C667        H672   1.088       .  S
C667        C668   1.356       .  D
C668       C1267   1.435       .  S
C673        C674   1.537       .  S
C673        C679   1.539       .  S
C673        C677   1.538       .  S
C673       C1441   1.477       .  S
C674        H681   1.086       .  S
C674        C675   1.368       .  D
C675        C676   1.537       .  S
C675       C1277   1.442       .  S
C676        C680   1.532       .  S
C676        C678   1.530       .  S
C676        H682   1.112       .  S
C677        H683   1.087       .  S
C677        C678   1.363       .  D
C678       C1299   1.440       .  S
C679        H684   1.086       .  S
C679        C680   1.366       .  D
C680       C1266   1.446       .  S
C685        C686   1.535       .  S
C685        C691   1.532       .  S
C685        C689   1.536       .  S
C685       C1270   1.465       .  S
C686        H693   1.086       .  S
C686        C687   1.368       .  D
C687        C688   1.546       .  S
C687       C1298   1.451       .  S
C688        C692   1.532       .  S
C688        C690   1.539       .  S
C688        H694   1.112       .  S
C689        H695   1.087       .  S
C689        C690   1.365       .  D
C690       C1265   1.446       .  S
C691        H696   1.088       .  S
C691        C692   1.357       .  D
C692       C1446   1.434       .  S
C697        C698   1.538       .  S
C697        C703   1.533       .  S
C697        C701   1.534       .  S
C697       C1259   1.465       .  S
C698        H705   1.086       .  S
C698        C699   1.370       .  D
C699        C700   1.545       .  S
C699       C1317   1.452       .  S
C700        C704   1.532       .  S
C700        C702   1.537       .  S
C700        H706   1.112       .  S
C701        H707   1.087       .  S
C701        C702   1.362       .  D
C702       C1261   1.443       .  S
C703        H708   1.087       .  S
C703        C704   1.357       .  D
C704       C1263   1.434       .  S
C709        C710   1.531       .  S
C709        C715   1.538       .  S
C709        C713   1.539       .  S
C709       C1257   1.469       .  S
C710        H717   1.086       .  S
C710        C711   1.363       .  D
C711        C712   1.540       .  S
C711       C1255   1.436       .  S
C712        C716   1.532       .  S
C712        C714   1.532       .  S
C712        H718   1.112       .  S
C713        H719   1.087       .  S
C713        C714   1.363       .  D
C714       C1320   1.443       .  S
C715        H720   1.086       .  S
C715        C716   1.365       .  D
C716       C1262   1.443       .  S
C721        C722   1.539       .  S
C721        C727   1.538       .  S
C721        C725   1.536       .  S
C721       C1310   1.474       .  S
C722        H729   1.087       .  S
C722        C723   1.363       .  D
C723        C724   1.530       .  S
C723       C1485   1.440       .  S
C724        C728   1.532       .  S
C724        C726   1.538       .  S
C724        H730   1.112       .  S
C725        H731   1.086       .  S
C725        C726   1.368       .  D
C726       C1252   1.442       .  S
C727        H732   1.086       .  S
C727        C728   1.365       .  D
C728       C1254   1.444       .  S
C733        C734   1.534       .  S
C733        C739   1.534       .  S
C733        C737   1.535       .  S
C733       C1256   1.462       .  S
C734        H741   1.087       .  S
C734        C735   1.363       .  D
C735        C736   1.538       .  S
C735       C1253   1.443       .  S
C736        C740   1.534       .  S
C736        C738   1.545       .  S
C736        H742   1.112       .  S
C737        H743   1.086       .  S
C737        C738   1.367       .  D
C738       C1481   1.448       .  S
C739        H744   1.088       .  S
C739        C740   1.357       .  D
C740       C1312   1.438       .  S
C745        C746   1.535       .  S
C745        C751   1.540       .  S
C745        C749   1.537       .  S
C745       C1250   1.474       .  S
C746        H753   1.086       .  S
C746        C747   1.367       .  D
C747        C748   1.538       .  S
C747       C1251   1.442       .  S
C748        C752   1.533       .  S
C748        C750   1.530       .  S
C748        H754   1.112       .  S
C749        H755   1.087       .  S
C749        C750   1.361       .  D
C750       C1470   1.439       .  S
C751        H756   1.086       .  S
C751        C752   1.367       .  D
C752       C1247   1.446       .  S
C757        C758   1.534       .  S
C757        C763   1.539       .  S
C757        C761   1.538       .  S
C757       C1466   1.473       .  S
C758        H765   1.086       .  S
C758        C759   1.366       .  D
C759        C760   1.540       .  S
C759       C1243   1.441       .  S
C760        C764   1.533       .  S
C760        C762   1.531       .  S
C760        H766   1.112       .  S
C761        H767   1.087       .  S
C761        C762   1.362       .  D
C762       C1246   1.442       .  S
C763        H768   1.086       .  S
C763        C764   1.366       .  D
C764       C1248   1.446       .  S
C769        C770   1.535       .  S
C769        C775   1.533       .  S
C769        C773   1.537       .  S
C769       C1244   1.467       .  S
C770        H777   1.087       .  S
C770        C771   1.363       .  D
C771        C772   1.539       .  S
C771       C1237   1.446       .  S
C772        C776   1.534       .  S
C772        C774   1.547       .  S
C772        H778   1.112       .  S
C773        H779   1.086       .  S
C773        C774   1.370       .  D
C774       C1241   1.454       .  S
C775        H780   1.087       .  S
C775        C776   1.358       .  D
C776       C1240   1.438       .  S
C781        C782   1.539       .  S
C781        C787   1.538       .  S
C781        C785   1.533       .  S
C781       C1236   1.471       .  S
C782        H789   1.087       .  S
C782        C783   1.363       .  D
C783        C784   1.530       .  S
C783       C1233   1.441       .  S
C784        C788   1.533       .  S
C784        C786   1.541       .  S
C784        H790   1.112       .  S
C785        H791   1.086       .  S
C785        C786   1.365       .  D
C786       C1260   1.439       .  S
C787        H792   1.086       .  S
C787        C788   1.366       .  D
C788       C1238   1.446       .  S
In793       O795   2.254   1_554  S
In793       O796   2.247       .  S
In793       O804   2.248       .  S
In793       O798   2.286       .  S
In793       O800   2.287   1_554  S
In793       O801   2.247       .  S
In793       O802   2.235   1_554  S
In793       O805   2.255       .  S
C794        O800   1.268       .  A
C794        O802   1.257       .  A
C794       C1406   1.448       .  S
O795        C803   1.261   1_556  A
O796        C803   1.261       .  A
C797        O804   1.257       .  A
C797        O798   1.262       .  A
C797        C901   1.475       .  S
C799        O801   1.259       .  A
C799        O805   1.259       .  A
C799       C1245   1.436       .  S
C803        C816   1.465   1_554  S
In806       O808   2.259   1_556  S
In806       O809   2.240       .  S
In806       O817   2.255       .  S
In806       O811   2.284       .  S
In806       O813   2.281   1_556  S
In806       O814   2.246       .  S
In806       O815   2.221   1_556  S
In806       O818   2.250       .  S
C807        O813   1.268       .  A
C807        O815   1.256       .  A
C807       C1249   1.440       .  S
O808        C816   1.262   1_554  A
O809        C816   1.261       .  A
C810        O817   1.257       .  A
C810        O811   1.261       .  A
C810        C836   1.477       .  S
C812        O814   1.259       .  A
C812        O818   1.259       .  A
C812       C1402   1.433       .  S
In819       O821   2.246       .  S
In819       O822   2.250       .  S
In819       O830   2.249       .  S
In819       O824   2.291       .  S
In819       O826   2.279       .  S
In819       O827   2.240       .  S
In819       O828   2.219       .  S
In819       O831   2.253       .  S
C820        O826   1.268       .  A
C820        O828   1.255       .  A
C820       C1439   1.438       .  S
O821        C829   1.259       .  A
O822        C829   1.259       .  A
C823        O830   1.257       .  A
C823        O824   1.261       .  A
C823        C849   1.478       .  S
C825        O827   1.261       .  A
C825        O831   1.262       .  A
C825        C838   1.464       .  S
C829       C1276   1.433       .  S
In832       O834   2.248       .  S
In832       O835   2.246       .  S
In832       O843   2.256       .  S
In832       O837   2.283       .  S
In832       O839   2.286       .  S
In832       O840   2.235       .  S
In832       O841   2.214       .  S
In832       O844   2.257       .  S
C833        O839   1.269       .  A
C833        O841   1.256       .  A
C833       C1282   1.439       .  S
O834        C842   1.258       .  A
O835        C842   1.259       .  A
C836        O843   1.257       .  A
C836        O837   1.261       .  A
C838        O840   1.261       .  A
C838        O844   1.263       .  A
C842       C1430   1.432       .  S
In845       O847   2.250       .  S
In845       O848   2.229       .  S
In845       O856   2.244       .  S
In845       O850   2.292       .  S
In845       O852   2.279       .  S
In845       O853   2.241       .  S
In845       O854   2.217       .  S
In845       O857   2.248       .  S
C846        O852   1.269       .  A
C846        O854   1.256       .  A
C846       C1337   1.439       .  S
O847        C855   1.263       .  A
O848        C855   1.261       .  A
C849        O856   1.257       .  A
C849        O850   1.264       .  A
C851        O853   1.259       .  A
C851        O857   1.259       .  A
C851       C1294   1.431       .  S
C855        C868   1.460       .  S
In858       O860   2.249       .  S
In858       O861   2.236       .  S
In858       O869   2.238       .  S
In858       O863   2.265       .  S
In858       O865   2.278       .  S
In858       O866   2.246       .  S
In858       O867   2.208       .  S
In858       O870   2.255       .  S
C859        O865   1.267       .  A
C859        O867   1.256       .  A
C859       C1288   1.435       .  S
O860        C868   1.262       .  A
O861        C868   1.260       .  A
C862        O869   1.257       .  A
C862        O863   1.260       .  A
C862        C888   1.465       .  S
C864        O866   1.258       .  A
C864        O870   1.258       .  A
C864       C1344   1.435       .  S
In871       O873   2.254       .  S
In871       O874   2.240       .  S
In871       O882   2.243       .  S
In871       O876   2.273       .  S
In871       O878   2.278   1_554  S
In871       O879   2.233       .  S
In871       O880   2.217   1_554  S
In871       O883   2.254   1_554  S
C872        O878   1.266       .  A
C872        O880   1.256       .  A
C872       C1334   1.436       .  S
O873        C881   1.259       .  A
O874        C881   1.258       .  A
C875        O882   1.257       .  A
C875        O876   1.260       .  A
C875        C927   1.470       .  S
C877        O879   1.260   1_556  A
C877        O883   1.262       .  A
C877        C890   1.462       .  S
C881       C1232   1.432       .  S
In884       O886   2.252       .  S
In884       O887   2.241       .  S
In884       O895   2.241       .  S
In884       O889   2.268       .  S
In884       O891   2.277   1_556  S
In884       O892   2.242       .  S
In884       O893   2.218   1_556  S
In884       O896   2.245   1_556  S
C885        O891   1.266       .  A
C885        O893   1.255       .  A
C885       C1229   1.436       .  S
O886        C894   1.259       .  A
O887        C894   1.258       .  A
C888        O895   1.256       .  A
C888        O889   1.260       .  A
C890        O892   1.261       .  A
C890        O896   1.261   1_556  A
C894       C1327   1.431       .  S
In897       O899   2.251       .  S
In897       O900   2.244       .  S
In897       O908   2.246       .  S
In897       O902   2.283       .  S
In897       O904   2.281       .  S
In897       O905   2.233       .  S
In897       O906   2.209       .  S
In897       O909   2.253       .  S
C898        O904   1.269       .  A
C898        O906   1.256       .  A
C898       C1391   1.437       .  S
O899        C907   1.259       .  A
O900        C907   1.259       .  A
C901        O908   1.257       .  A
C901        O902   1.262       .  A
C903        O905   1.261       .  A
C903        O909   1.262       .  A
C903        C916   1.462       .  S
C907       C1239   1.432       .  S
In910       O912   2.249       .  S
In910       O913   2.246       .  S
In910       O921   2.243       .  S
In910       O915   2.272       .  S
In910       O917   2.276       .  S
In910       O918   2.242       .  S
In910       O919   2.217       .  S
In910       O922   2.246       .  S
C911        O917   1.267       .  A
C911        O919   1.256       .  A
C911       C1235   1.437       .  S
O912        C920   1.258       .  A
O913        C920   1.259       .  A
C914        O921   1.258       .  A
C914        O915   1.261       .  A
C914        C940   1.471       .  S
C916        O918   1.262       .  A
C916        O922   1.261       .  A
C920       C1398   1.432       .  S
In923       O925   2.249       .  S
In923       O926   2.235       .  S
In923       O934   2.245       .  S
In923       O928   2.274       .  S
In923       O930   2.280       .  S
In923       O931   2.241       .  S
In923       O932   2.218       .  S
In923       O935   2.249       .  S
C924        O930   1.267       .  A
C924        O932   1.255       .  A
C924       C1385   1.438       .  S
O925        C933   1.262       .  A
O926        C933   1.260       .  A
C927        O934   1.257       .  A
C927        O928   1.260       .  A
C929        O931   1.259       .  A
C929        O935   1.259       .  A
C929       C1227   1.431       .  S
C933        C946   1.460       .  S
In936       O938   2.248       .  S
In936       O939   2.232       .  S
In936       O947   2.243       .  S
In936       O941   2.279       .  S
In936       O943   2.281       .  S
In936       O944   2.240       .  S
In936       O945   2.217       .  S
In936       O948   2.245       .  S
C937        O943   1.269       .  A
C937        O945   1.256       .  A
C937       C1225   1.440       .  S
O938        C946   1.262       .  A
O939        C946   1.260       .  A
C940        O947   1.256       .  A
C940        O941   1.262       .  A
C942        O944   1.258       .  A
C942        O948   1.259       .  A
C942       C1376   1.429       .  S
In949       O951   2.255   1_545  S
In949       O952   2.247       .  S
In949       O960   2.251       .  S
In949       O954   2.281       .  S
In949       O956   2.279   1_545  S
In949       O957   2.246       .  S
In949       O958   2.221   1_545  S
In949       O961   2.246       .  S
C950        O956   1.267       .  A
C950        O958   1.256       .  A
C950       C1366   1.438       .  S
O951        C959   1.262       .  A
O952        C959   1.261   1_545  A
C953        O960   1.258       .  A
C953        O954   1.260       .  A
C953       C1057   1.474       .  S
C955        O957   1.260       .  A
C955        O961   1.258       .  A
C955       C1223   1.432       .  S
C959        C972   1.467       .  S
In962       O964   2.259   1_565  S
In962       O965   2.241       .  S
In962       O973   2.250       .  S
In962       O967   2.288       .  S
In962       O969   2.283   1_565  S
In962       O970   2.244       .  S
In962       O971   2.230   1_565  S
In962       O974   2.250       .  S
C963        O969   1.269       .  A
C963        O971   1.258       .  A
C963       C1221   1.446       .  S
O964        C972   1.263   1_545  A
O965        C972   1.261       .  A
C966        O973   1.258       .  A
C966        O967   1.263       .  A
C966        C992   1.479       .  S
C968        O970   1.259       .  A
C968        O974   1.258       .  A
C968       C1361   1.432       .  S
In975       O977   2.256       .  S
In975       O978   2.247       .  S
In975       O986   2.243       .  S
In975       O980   2.280       .  S
In975       O982   2.277       .  S
In975       O983   2.247       .  S
In975       O984   2.214       .  S
In975       O987   2.258       .  S
C976        O982   1.267       .  A
C976        O984   1.256       .  A
C976       C1399   1.436       .  S
O977        C985   1.259       .  A
O978        C985   1.259       .  A
C979        O986   1.257       .  A
C979        O980   1.260       .  A
C979       C1005   1.470       .  S
C981        O983   1.260       .  A
C981        O987   1.261       .  A
C981        C994   1.466       .  S
C985       C1234   1.435       .  S
In988       O990   2.250       .  S
In988       O991   2.243       .  S
In988       O999   2.253       .  S
In988       O993   2.291       .  S
In988       O995   2.287       .  S
In988       O996   2.242       .  S
In988       O997   2.231       .  S
In988      O1000   2.261       .  S
C989        O995   1.268       .  A
C989        O997   1.257       .  A
C989       C1242   1.446       .  S
O990        C998   1.259       .  A
O991        C998   1.259       .  A
C992        O999   1.257       .  A
C992        O993   1.262       .  A
C994        O996   1.260       .  A
C994       O1000   1.262       .  A
C998       C1390   1.433       .  S
In1001     O1003   2.247       .  S
In1001     O1004   2.231       .  S
In1001     O1012   2.234       .  S
In1001     O1006   2.276       .  S
In1001     O1008   2.269       .  S
In1001     O1009   2.235       .  S
In1001     O1010   2.212       .  S
In1001     O1013   2.244       .  S
C1002      O1008   1.268       .  A
C1002      O1010   1.256       .  A
C1002      C1418   1.433       .  S
O1003      C1011   1.262       .  A
O1004      C1011   1.260       .  A
C1005      O1012   1.257       .  A
C1005      O1006   1.262       .  A
C1007      O1009   1.259       .  A
C1007      O1013   1.259       .  A
C1007      C1264   1.428       .  S
C1011      C1024   1.458       .  S
In1014     O1016   2.248       .  S
In1014     O1017   2.231       .  S
In1014     O1025   2.233       .  S
In1014     O1019   2.270       .  S
In1014     O1021   2.274       .  S
In1014     O1022   2.238       .  S
In1014     O1023   2.209       .  S
In1014     O1026   2.251       .  S
C1015      O1021   1.268       .  A
C1015      O1023   1.256       .  A
C1015      C1258   1.433       .  S
O1016      C1024   1.262       .  A
O1017      C1024   1.260       .  A
C1018      O1025   1.256       .  A
C1018      O1019   1.261       .  A
C1018      C1044   1.465       .  S
C1020      O1022   1.258       .  A
C1020      O1026   1.259       .  A
C1020      C1423   1.431       .  S
In1027     O1029   2.245       .  S
In1027     O1030   2.243       .  S
In1027     O1038   2.245       .  S
In1027     O1032   2.275       .  S
In1027     O1034   2.277   1_545  S
In1027     O1035   2.237       .  S
In1027     O1036   2.215   1_545  S
In1027     O1039   2.244   1_545  S
C1028      O1034   1.267       .  A
C1028      O1036   1.256       .  A
C1028      C1414   1.435       .  S
O1029      C1037   1.259       .  A
O1030      C1037   1.258       .  A
C1031      O1038   1.256       .  A
C1031      O1032   1.259       .  A
C1031      C1083   1.469       .  S
C1033      O1035   1.260   1_565  A
C1033      O1039   1.262       .  A
C1033      C1046   1.459       .  S
C1037      C1268   1.429       .  S
In1040     O1042   2.252       .  S
In1040     O1043   2.247       .  S
In1040     O1051   2.238       .  S
In1040     O1045   2.269       .  S
In1040     O1047   2.275   1_565  S
In1040     O1048   2.233       .  S
In1040     O1049   2.214   1_565  S
In1040     O1052   2.252   1_565  S
C1041      O1047   1.266       .  A
C1041      O1049   1.257       .  A
C1041      C1274   1.436       .  S
O1042      C1050   1.258       .  A
O1043      C1050   1.258       .  A
C1044      O1051   1.257       .  A
C1044      O1045   1.260       .  A
C1046      O1048   1.259       .  A
C1046      O1052   1.262   1_565  A
C1050      C1407   1.433       .  S
In1053     O1055   2.241       .  S
In1053     O1056   2.236       .  S
In1053     O1064   2.239       .  S
In1053     O1058   2.281       .  S
In1053     O1060   2.274       .  S
In1053     O1061   2.221       .  S
In1053     O1062   2.212       .  S
In1053     O1065   2.247       .  S
C1054      O1060   1.269       .  A
C1054      O1062   1.256       .  A
C1054      C1351   1.435       .  S
O1055      C1063   1.259       .  A
O1056      C1063   1.259       .  A
C1057      O1064   1.257       .  A
C1057      O1058   1.263       .  A
C1059      O1061   1.260       .  A
C1059      O1065   1.263       .  A
C1059      C1072   1.457       .  S
C1063      C1220   1.427       .  S
In1066     O1068   2.248       .  S
In1066     O1069   2.241       .  S
In1066     O1077   2.241       .  S
In1066     O1071   2.292       .  S
In1066     O1073   2.285       .  S
In1066     O1074   2.228       .  S
In1066     O1075   2.218       .  S
In1066     O1078   2.247       .  S
C1067      O1073   1.271       .  A
C1067      O1075   1.256       .  A
C1067      C1217   1.443       .  S
O1068      C1076   1.259       .  A
O1069      C1076   1.259       .  A
C1070      O1077   1.256       .  A
C1070      O1071   1.264       .  A
C1070      C1096   1.476       .  S
C1072      O1074   1.260       .  A
C1072      O1078   1.262       .  A
C1076      C1358   1.432       .  S
In1079     O1081   2.249       .  S
In1079     O1082   2.242       .  S
In1079     O1090   2.242       .  S
In1079     O1084   2.273       .  S
In1079     O1086   2.279       .  S
In1079     O1087   2.243       .  S
In1079     O1088   2.214       .  S
In1079     O1091   2.257       .  S
C1080      O1086   1.267       .  A
C1080      O1088   1.256       .  A
C1080      C1346   1.437       .  S
O1081      C1089   1.261       .  A
O1082      C1089   1.261       .  A
C1083      O1090   1.257       .  A
C1083      O1084   1.261       .  A
C1085      O1087   1.259       .  A
C1085      O1091   1.259       .  A
C1085      C1286   1.434       .  S
C1089      C1102   1.462       .  S
In1092     O1094   2.255       .  S
In1092     O1095   2.239       .  S
In1092     O1103   2.245       .  S
In1092     O1097   2.289       .  S
In1092     O1099   2.277       .  S
In1092     O1100   2.246       .  S
In1092     O1101   2.221       .  S
In1092     O1104   2.249       .  S
C1093      O1099   1.267       .  A
C1093      O1101   1.256       .  A
C1093      C1295   1.438       .  S
O1094      C1102   1.261       .  A
O1095      C1102   1.260       .  A
C1096      O1103   1.257       .  A
C1096      O1097   1.261       .  A
C1098      O1100   1.259       .  A
C1098      O1104   1.259       .  A
C1098      C1336   1.432       .  S
C1105      C1106   1.534       .  S
C1105      C1111   1.535       .  S
C1105      C1109   1.536       .  S
C1105      C1213   1.470       .  S
C1106      H1113   1.086       .  S
C1106      C1107   1.368       .  D
C1107      C1108   1.547       .  S
C1107      C1226   1.448       .  S
C1108      C1112   1.532       .  S
C1108      C1110   1.537       .  S
C1108      H1114   1.112       .  S
C1109      H1115   1.087       .  S
C1109      C1110   1.364       .  D
C1110      C1215   1.445       .  S
C1111      H1116   1.082       .  S
C1111      C1112   1.355       .  D
C1112      C1308   1.438       .  S
C1117      C1118   1.537       .  S
C1117      C1123   1.539       .  S
C1117      C1121   1.538       .  S
C1117      C1305   1.475       .  S
C1118      H1125   1.086       .  S
C1118      C1119   1.368       .  D
C1119      C1120   1.536       .  S
C1119      C1211   1.441       .  S
C1120      C1124   1.532       .  S
C1120      C1122   1.529       .  S
C1120      H1126   1.112       .  S
C1121      H1127   1.087       .  S
C1121      C1122   1.363       .  D
C1122      C1228   1.438       .  S
C1123      H1128   1.086       .  S
C1123      C1124   1.365       .  D
C1124      C1216   1.445       .  S
C1129      C1130   1.539       .  S
C1129      C1135   1.538       .  S
C1129      C1133   1.533       .  S
C1129      C1230   1.471       .  S
C1130      H1137   1.087       .  S
C1130      C1131   1.363       .  D
C1131      C1132   1.532       .  S
C1131      C1454   1.443       .  S
C1132      C1136   1.533       .  S
C1132      C1134   1.540       .  S
C1132      H1138   1.112       .  S
C1133      H1139   1.086       .  S
C1133      C1134   1.365       .  D
C1134      C1207   1.440       .  S
C1135      H1140   1.087       .  S
C1135      C1136   1.365       .  D
C1136      C1209   1.444       .  S
C1141      C1142   1.537       .  S
C1141      C1147   1.537       .  S
C1141      C1145   1.535       .  S
C1141      C1450   1.473       .  S
C1142      H1149   1.087       .  S
C1142      C1143   1.362       .  D
C1143      C1144   1.531       .  S
C1143      C1231   1.439       .  S
C1144      C1148   1.534       .  S
C1144      C1146   1.538       .  S
C1144      H1150   1.112       .  S
C1145      H1151   1.086       .  S
C1145      C1146   1.367       .  D
C1146      C1212   1.441       .  S
C1147      H1152   1.087       .  S
C1147      C1148   1.365       .  D
C1148      C1210   1.444       .  S
C1153      C1154   1.537       .  S
C1153      C1159   1.533       .  S
C1153      C1157   1.535       .  S
C1153      C1208   1.466       .  S
C1154      H1161   1.086       .  S
C1154      C1155   1.369       .  D
C1155      C1156   1.545       .  S
C1155      C1222   1.453       .  S
C1156      C1160   1.532       .  S
C1156      C1158   1.539       .  S
C1156      H1162   1.112       .  S
C1157      H1163   1.087       .  S
C1157      C1158   1.364       .  D
C1158      C1205   1.446       .  S
C1159      H1164   1.088       .  S
C1159      C1160   1.357       .  D
C1160      C1477   1.436       .  S
C1165      C1166   1.537       .  S
C1165      C1171   1.538       .  S
C1165      C1169   1.539       .  S
C1165      C1474   1.476       .  S
C1166      H1173   1.086       .  S
C1166      C1167   1.367       .  D
C1167      C1168   1.540       .  S
C1167      C1203   1.444       .  S
C1168      C1172   1.533       .  S
C1168      C1170   1.529       .  S
C1168      H1174   1.112       .  S
C1169      H1175   1.087       .  S
C1169      C1170   1.364       .  D
C1170      C1224   1.439       .  S
C1171      H1176   1.087       .  S
C1171      C1172   1.365       .  D
C1172      C1206   1.446       .  S
C1177      C1178   1.536       .  S
C1177      C1183   1.533       .  S
C1177      C1181   1.538       .  S
C1177      C1204   1.470       .  S
C1178      H1185   1.087       .  S
C1178      C1179   1.364       .  D
C1179      C1180   1.538       .  S
C1179      C1202   1.447       .  S
C1180      C1184   1.532       .  S
C1180      C1182   1.546       .  S
C1180      H1186   1.112       .  S
C1181      H1187   1.086       .  S
C1181      C1182   1.370       .  D
C1182      C1301   1.455       .  S
C1183      H1188   1.087       .  S
C1183      C1184   1.358       .  D
C1184      C1219   1.434       .  S
C1189      C1190   1.536       .  S
C1189      C1195   1.534       .  S
C1189      C1193   1.533       .  S
C1189      C1214   1.470       .  S
C1190      H1197   1.087       .  S
C1190      C1191   1.365       .  D
C1191      C1192   1.539       .  S
C1191      C1201   1.447       .  S
C1192      C1196   1.532       .  S
C1192      C1194   1.549       .  S
C1192      H1198   1.112       .  S
C1193      H1199   1.086       .  S
C1193      C1194   1.368       .  D
C1194      C1218   1.451       .  S
C1195      H1200   1.081       .  S
C1195      C1196   1.355       .  D
C1196      C1304   1.438       .  S
C1201      C1202   1.209       .  T
C1203      C1204   1.208       .  T
C1205      C1206   1.208       .  T
C1207      C1208   1.205       .  T
C1209      C1210   1.207       .  T
C1211      C1212   1.206       .  T
C1213      C1214   1.208       .  T
C1215      C1216   1.208       .  T
C1217      C1218   1.211       .  T
C1219      C1220   1.201       .  T
C1221      C1222   1.212       .  T
C1223      C1224   1.204       .  T
C1225      C1226   1.209       .  T
C1227      C1228   1.203       .  T
C1229      C1230   1.207       .  T
C1231      C1232   1.204       .  T
C1233      C1234   1.205       .  T
C1235      C1236   1.208       .  T
C1237      C1238   1.208       .  T
C1239      C1240   1.204       .  T
C1241      C1242   1.213       .  T
C1243      C1244   1.206       .  T
C1245      C1246   1.206       .  T
C1247      C1248   1.208       .  T
C1249      C1250   1.209       .  T
C1251      C1252   1.206       .  T
C1253      C1254   1.207       .  T
C1255      C1256   1.203       .  T
C1257      C1258   1.206       .  T
C1259      C1260   1.205       .  T
C1261      C1262   1.207       .  T
C1263      C1264   1.201       .  T
C1265      C1266   1.209       .  T
C1267      C1268   1.202       .  T
C1269      C1270   1.205       .  T
C1271      C1272   1.208       .  T
C1273      C1274   1.207       .  T
C1275      C1276   1.205       .  T
C1277      C1278   1.206       .  T
C1279      C1280   1.207       .  T
C1281      C1282   1.210       .  T
C1283      C1284   1.207       .  T
C1285      C1286   1.205       .  T
C1287      C1288   1.207       .  T
C1289      C1290   1.206       .  T
C1291      C1292   1.208       .  T
C1293      C1294   1.203       .  T
C1295      C1296   1.208       .  T
C1297      C1298   1.212       .  T
C1299      C1300   1.205       .  T
C1301      C1302   1.214       .  T
C1303      C1304   1.204       .  T
C1305      C1306   1.210       .  T
C1307      C1308   1.204       .  T
C1309      C1310   1.209       .  T
C1311      C1312   1.204       .  T
C1313      C1314   1.209       .  T
C1315      C1316   1.204       .  T
C1317      C1318   1.212       .  T
C1319      C1320   1.206       .  T
C1321      C1322   1.204       .  T
C1323      C1324   1.206       .  T
C1325      C1326   1.208       .  T
C1327      C1328   1.203       .  T
C1329      C1330   1.204       .  T
C1331      C1332   1.205       .  T
C1333      C1334   1.207       .  T
C1335      C1336   1.204       .  T
C1337      C1338   1.209       .  T
C1339      C1340   1.205       .  T
C1341      C1342   1.208       .  T
C1343      C1344   1.205       .  T
C1345      C1346   1.208       .  T
C1347      C1348   1.205       .  T
C1349      C1350   1.203       .  T
C1351      C1352   1.206       .  T
C1353      C1354   1.207       .  T
C1355      C1356   1.207       .  T
C1357      C1358   1.204       .  T
C1359      C1360   1.211       .  T
C1361      C1362   1.204       .  T
C1363      C1364   1.207       .  T
C1365      C1366   1.209       .  T
C1367      C1368   1.202       .  T
C1369      C1370   1.206       .  T
C1371      C1372   1.209       .  T
C1373      C1374   1.209       .  T
C1375      C1376   1.202       .  T
C1377      C1378   1.211       .  T
C1379      C1380   1.207       .  T
C1381      C1382   1.209       .  T
C1383      C1384   1.204       .  T
C1385      C1386   1.209       .  T
C1387      C1388   1.204       .  T
C1389      C1390   1.204       .  T
C1391      C1392   1.209       .  T
C1393      C1394   1.205       .  T
C1395      C1396   1.206       .  T
C1397      C1398   1.204       .  T
C1399      C1400   1.207       .  T
C1401      C1402   1.204       .  T
C1403      C1404   1.206       .  T
C1405      C1406   1.214       .  T
C1407      C1408   1.204       .  T
C1409      C1410   1.206       .  T
C1411      C1412   1.210       .  T
C1413      C1414   1.207       .  T
C1415      C1416   1.203       .  T
C1417      C1418   1.205       .  T
C1419      C1420   1.207       .  T
C1421      C1422   1.208       .  T
C1423      C1424   1.203       .  T
C1425      C1426   1.210       .  T
C1427      C1428   1.206       .  T
C1429      C1430   1.204       .  T
C1431      C1432   1.210       .  T
C1433      C1434   1.204       .  T
C1435      C1436   1.208       .  T
C1437      C1438   1.203       .  T
C1439      C1440   1.208       .  T
C1441      C1442   1.210       .  T
C1443      C1444   1.202       .  T
C1445      C1446   1.201       .  T
C1447      C1448   1.209       .  T
C1449      C1450   1.209       .  T
C1451      C1452   1.204       .  T
C1453      C1454   1.206       .  T
C1455      C1456   1.210       .  T
C1457      C1458   1.213       .  T
C1459      C1460   1.205       .  T
C1461      C1462   1.205       .  T
C1463      C1464   1.212       .  T
C1465      C1466   1.209       .  T
C1467      C1468   1.201       .  T
C1469      C1470   1.204       .  T
C1471      C1472   1.210       .  T
C1473      C1474   1.210       .  T
C1475      C1476   1.205       .  T
C1477      C1478   1.202       .  T
C1479      C1480   1.207       .  T
C1481      C1482   1.210       .  T
C1483      C1484   1.202       .  T
C1485      C1486   1.205       .  T
C1487      C1488   1.213       .  T
