geometry optimzed in LAMMPS
_audit_creation_date              2020-11-30 
_audit_creation_method            'lammps2cif' 
_symmetry_space_group_name_H-M    'P1' 
_symmetry_Int_Tables_number       1 
_symmetry_cell_setting            triclinic 
loop_ 
_symmetry_equiv_pos_as_xyz 
  x,y,z 
_cell_length_a                    55.22532357 
_cell_length_b                    55.28392750882151 
_cell_length_c                    98.06716032289786 
_cell_angle_alpha                 91.49225698348708 
_cell_angle_beta                  88.47472661336798 
_cell_angle_gamma                 121.70262572740396 
loop_ 
_atom_site_label 
_atom_site_type_symbol 
_atom_site_fract_x 
_atom_site_fract_y 
_atom_site_fract_z 
_atom_site_charge 
N1          N  0.48678769  0.41018827  0.08894045    -0.26800
N2          N  0.50558207  0.41578549  0.09847920    -0.34700
C3          C  0.49480256  0.39347558  0.10689127     0.01500
C4          C  0.46802298  0.37287155  0.10234978     0.07500
C5          C  0.46363222  0.38433308  0.09101798    -0.05600
H6          H  0.50503177  0.39298279  0.11604543     0.08200
H7          H  0.44453789  0.37502074  0.08501220     0.09400
Cu8        Cu  0.54395872  0.45433866  0.10011670     0.44200
Cu9        Cu  0.49164044  0.43837972  0.07418442     0.42000
Cu10       Cu  0.55674077  0.50575927  0.07404340     0.43900
N11         N  0.58040190  0.49459572  0.09885688    -0.34200
N12         N  0.58486623  0.51317518  0.08939060    -0.28500
C13         C  0.60955806  0.53758183  0.09183388    -0.04600
C14         C  0.62146094  0.53413112  0.10327095     0.07700
C15         C  0.60230562  0.50669682  0.10752791     0.01400
H16         H  0.61785916  0.55668403  0.08591905     0.09100
H17         H  0.60351433  0.49670990  0.11661254     0.08200
N18         N  0.52422331  0.49493302  0.06063826    -0.35700
N19         N  0.49995375  0.47019168  0.06085499    -0.27800
C20         C  0.48213071  0.47049256  0.05190061    -0.03100
C21         C  0.49600646  0.49663799  0.04556894     0.05500
C22         C  0.52262679  0.51161964  0.05145543     0.03600
H23         H  0.46019018  0.45351435  0.05073747     0.08700
H24         H  0.53927805  0.53342365  0.04956582     0.07600
N25         N  0.43445284  0.64430310  0.92799790    -0.26800
N26         N  0.41437974  0.63812012  0.91910457    -0.34700
C27         C  0.42610008  0.65487656  0.90820070     0.01500
C28         C  0.45496705  0.67240815  0.91035532     0.07500
C29         C  0.45960473  0.66497957  0.92294207    -0.05600
H30         H  0.41474935  0.65323976  0.89906016     0.08200
H31         H  0.47986083  0.67331604  0.92785028     0.09400
Cu32       Cu  0.37306050  0.60444653  0.92141427     0.44200
Cu33       Cu  0.42667484  0.62247136  0.94595313     0.42000
Cu34       Cu  0.35572815  0.56033678  0.95122630     0.43900
N35         N  0.33497140  0.56658975  0.92426359    -0.34200
N36         N  0.32855761  0.55031597  0.93503969    -0.28500
C37         C  0.30371020  0.52584357  0.93288287    -0.04600
C38         C  0.29394650  0.52691633  0.92018579     0.07700
C39         C  0.31445411  0.55297171  0.91499166     0.01400
H40         H  0.29421157  0.50801973  0.93973937     0.09100
H41         H  0.31554114  0.56063162  0.90481971     0.08200
N42         N  0.38896812  0.57360517  0.96458176    -0.35700
N43         N  0.41470654  0.59613458  0.96256942    -0.27800
C44         C  0.43210142  0.59718603  0.97217596    -0.03100
C45         C  0.41660668  0.57433826  0.98071496     0.05500
C46         C  0.38934477  0.55974382  0.97556089     0.03600
H47         H  0.45474091  0.61259015  0.97247110     0.08700
H48         H  0.37165661  0.53944375  0.97889634     0.07600
C49         C  0.49924156  0.55905863  0.49847858     0.02800
C50         C  0.47477532  0.53124820  0.49753242     0.02700
C51         C  0.47359606  0.50921747  0.50490945    -0.17800
C52         C  0.49633646  0.51415273  0.51299364     0.02800
C53         C  0.52095317  0.54161132  0.51359036     0.02700
C54         C  0.52207053  0.56378230  0.50647243    -0.17800
H55         H  0.54071196  0.58502103  0.50738718     0.04800
H56         H  0.45449622  0.48818305  0.50462835     0.04800
C57         C  0.12741095  0.83706750  0.84989819     0.02800
C58         C  0.15490220  0.86116995  0.85192044     0.02700
C59         C  0.16277622  0.88662010  0.84540556    -0.17800
C60         C  0.14373494  0.88851736  0.83701813     0.02800
C61         C  0.11611887  0.86451037  0.83514218     0.02700
C62         C  0.10826270  0.83896364  0.84156239    -0.17800
H63         H  0.08720959  0.82040731  0.83998576     0.04800
H64         H  0.18397672  0.90506872  0.84680155     0.04800
N65         N  0.58381159  0.14341228  0.09611293    -0.26800
N66         N  0.57295443  0.14691715  0.10762854    -0.34700
C67         C  0.59190066  0.15453037  0.11760945     0.01500
C68         C  0.61580325  0.15583435  0.11210317     0.07500
C69         C  0.61016324  0.14895181  0.09843700    -0.05600
H70         H  0.58840326  0.15854141  0.12811445     0.08200
H71         H  0.62370210  0.14698339  0.09088608     0.09400
Cu72       Cu  0.53310018  0.14139062  0.10941641     0.44200
Cu73       Cu  0.56080563  0.12807332  0.07833954     0.42000
Cu74       Cu  0.48974263  0.11783733  0.07971548     0.43900
N75         N  0.49551307  0.14064508  0.10836347    -0.34200
N76         N  0.47988087  0.13308708  0.09728826    -0.28500
C77         C  0.45778402  0.13660634  0.09970997    -0.04600
C78         C  0.45960575  0.14649255  0.11299024     0.07700
C79         C  0.48377442  0.14887348  0.11815307     0.01400
H80         H  0.44142988  0.13194049  0.09244056     0.09100
H81         H  0.49240934  0.15637725  0.12822419     0.08200
N82         N  0.50443682  0.10208863  0.06420661    -0.35700
N83         N  0.53025224  0.10610668  0.06363877    -0.27800
C84         C  0.53214932  0.09159941  0.05285909    -0.03100
C85         C  0.50635706  0.07793263  0.04621195     0.05500
C86         C  0.48927295  0.08492628  0.05377663     0.03600
H87         H  0.55046586  0.08993914  0.05052215     0.08700
H88         H  0.46716315  0.07750671  0.05201715     0.07600
N89         N  0.35063110  0.88452124  0.91687167    -0.26800
N90         N  0.35083109  0.86607256  0.90807513    -0.34700
C91         C  0.32841982  0.85616889  0.89979535     0.01500
C92         C  0.31351413  0.86903654  0.90358178     0.07500
C93         C  0.32826167  0.88707156  0.91433469    -0.05600
H94         H  0.32374982  0.84128230  0.89142598     0.08200
H95         H  0.32317885  0.90106700  0.91987298     0.09400
Cu96       Cu  0.38217540  0.85607250  0.90733461     0.44200
Cu97       Cu  0.38024592  0.90480952  0.93214964     0.42000
Cu98       Cu  0.43160246  0.88388771  0.93543480     0.43900
N99         N  0.41669642  0.85101062  0.90868723    -0.34200
N100        N  0.43449583  0.86099300  0.91900559    -0.28500
C101        C  0.45620119  0.85716616  0.91616779    -0.04600
C102        C  0.45189811  0.84402590  0.90349277     0.07700
C103        C  0.42663427  0.84050951  0.89903097     0.01400
H104        H  0.47475526  0.86510490  0.92246487     0.09100
H105        H  0.41738578  0.83303468  0.88906479     0.08200
N106        N  0.42779870  0.91093675  0.94921825    -0.35700
N107        N  0.40944884  0.91912282  0.94774012    -0.27800
C108        C  0.41294983  0.93751754  0.95784972    -0.03100
C109        C  0.43434557  0.94092323  0.96622072     0.05500
C110        C  0.44345290  0.92389716  0.96036306     0.03600
H111        H  0.40078329  0.94768779  0.95902140     0.08700
H112        H  0.46075606  0.92176655  0.96367010     0.07600
N113        N  0.83328214  0.40944146  0.09159546    -0.26800
N114        N  0.83592353  0.42303184  0.10328308    -0.34700
C115        C  0.83498009  0.40707286  0.11359764     0.01500
C116        C  0.83125474  0.38204627  0.10821411     0.07500
C117        C  0.83042407  0.38426266  0.09421424    -0.05600
H118        H  0.83660777  0.41315220  0.12426646     0.08200
H119        H  0.82848060  0.36903184  0.08649726     0.09400
Cu120      Cu  0.83924513  0.46189735  0.10516479     0.44200
Cu121      Cu  0.83437127  0.42627849  0.07270265     0.42000
Cu122      Cu  0.83628955  0.49325835  0.07449764     0.43900
N123        N  0.83595443  0.49734783  0.10497958    -0.34200
N124        N  0.83411974  0.50860153  0.09363576    -0.28500
C125        C  0.83014212  0.53007293  0.09685314    -0.04600
C126        C  0.82982994  0.53260584  0.11091637     0.07700
C127        C  0.83335368  0.51138288  0.11574028     0.01400
H128        H  0.82757237  0.54280332  0.08951211     0.09100
H129        H  0.83314450  0.50594391  0.12628015     0.08200
N130        N  0.83871862  0.47419197  0.05653402    -0.35700
N131        N  0.83778456  0.44980519  0.05574793    -0.27800
C132        C  0.84163477  0.44462345  0.04262885    -0.03100
C133        C  0.84502692  0.46677052  0.03480651     0.05500
C134        C  0.84325497  0.48517184  0.04400886     0.03600
H135        H  0.84362470  0.42699412  0.03919300     0.08700
H136        H  0.84617896  0.50564067  0.04184330     0.07600
N137        N  0.03830945  0.61075917  0.90609045    -0.26800
N138        N  0.05783144  0.60856780  0.89903668    -0.34700
C139        C  0.07348017  0.63220292  0.89162447     0.01500
C140        C  0.06310002  0.64996399  0.89400450     0.07500
C141        C  0.04114387  0.63583954  0.90342452    -0.05600
H142        H  0.09054214  0.63576915  0.88466100     0.08200
H143        H  0.02797887  0.64306060  0.90799764     0.09400
Cu144      Cu  0.06113348  0.57282945  0.89899745     0.44200
Cu145      Cu  0.00684849  0.57913151  0.91823138     0.42000
Cu146      Cu  0.00436648  0.51338436  0.91760144     0.43900
N147        N  0.05634273  0.53301726  0.89960883    -0.34200
N148        N  0.03533077  0.51143188  0.90630999    -0.28500
C149        C  0.03718516  0.48835398  0.90432682    -0.04600
C150        C  0.06029591  0.49558366  0.89584053     0.07700
C151        C  0.07222374  0.52416736  0.89317423     0.01400
H152        H  0.02275305  0.46784446  0.90879219     0.09100
H153        H  0.09065691  0.53735846  0.88678332     0.08200
N154        N  0.97569439  0.51955259  0.92862471    -0.35700
N155        N  0.97657192  0.54387701  0.92899344    -0.27800
C156        C  0.95685569  0.54192811  0.93801583    -0.03100
C157        C  0.94278616  0.51494252  0.94354396     0.05500
C158        C  0.95546297  0.50145355  0.93735648     0.03600
H159        H  0.95445471  0.55951026  0.94103530     0.08700
H160        H  0.95134193  0.48053111  0.93956556     0.07600
C161        C  0.81391566  0.22449175  0.16427756     0.02800
C162        C  0.78785270  0.19813974  0.16416087     0.02700
C163        C  0.78472618  0.17563773  0.17179841    -0.17800
C164        C  0.80707526  0.17902827  0.17967101     0.02800
C165        C  0.83314525  0.20547095  0.17990222     0.02700
C166        C  0.83632048  0.22787647  0.17212191    -0.17800
H167        H  0.85645959  0.24803610  0.17207242     0.04800
H168        H  0.76471298  0.15535133  0.17164302     0.04800
N169        N  0.25620698  0.87384671  0.43241020    -0.26800
N170        N  0.25235339  0.85528808  0.44172952    -0.34700
C171        C  0.27325244  0.86802292  0.45084604     0.01500
C172        C  0.29097655  0.89603826  0.44714124     0.07500
C173        C  0.27970629  0.89902968  0.43534059    -0.05600
H174        H  0.27540940  0.85762294  0.45951674     0.08200
H175        H  0.28829571  0.91777487  0.42913404     0.09400
Cu176      Cu  0.21896461  0.81371412  0.44174747     0.44200
Cu177      Cu  0.22971826  0.86325875  0.41607533     0.42000
Cu178      Cu  0.16643440  0.79127434  0.41561294     0.43900
N179        N  0.18237619  0.77409607  0.44117516    -0.34200
N180        N  0.16257790  0.76581113  0.43185340    -0.28500
C181        C  0.14071768  0.73965275  0.43500701    -0.04600
C182        C  0.14736720  0.73104531  0.44675881     0.07700
C183        C  0.17382970  0.75356298  0.45042922     0.01400
H184        H  0.12124128  0.72792862  0.42930161     0.09100
H185        H  0.18550860  0.75549021  0.45948915     0.08200
N186        N  0.17766907  0.82101746  0.40030842    -0.35700
N187        N  0.20083884  0.84677725  0.40052309    -0.27800
C188        C  0.20236993  0.86038413  0.38909977    -0.03100
C189        C  0.17915165  0.84236690  0.38123483     0.05500
C190        C  0.16370269  0.81771270  0.38870120     0.03600
H191        H  0.21889457  0.88205667  0.38685252     0.08700
H192        H  0.14385180  0.79875382  0.38587645     0.07600
N193        N  0.12320392  0.97231581  0.25070345    -0.26800
N194        N  0.10217134  0.96646757  0.24247136    -0.34700
C195        C  0.11149223  0.98746647  0.23336676     0.01500
C196        C  0.13973061  0.00746819  0.23603730     0.07500
C197        C  0.14646989  0.99703490  0.24702420    -0.05600
H198        H  0.09912144  0.98736210  0.22496653     0.08200
H199        H  0.16706591  0.00626639  0.25171271     0.09400
Cu200      Cu  0.06302947  0.92856987  0.24305411     0.44200
Cu201      Cu  0.12022696  0.94538221  0.26577900     0.42000
Cu202      Cu  0.05543014  0.87576991  0.26685491     0.43900
N203        N  0.02763930  0.88764640  0.24411891    -0.34200
N204        N  0.02509157  0.86813966  0.25256013    -0.28500
C205        C  0.00078679  0.84340282  0.24989547    -0.04600
C206        C  0.98748609  0.84758330  0.23924195     0.07700
C207        C  0.00495461  0.87590977  0.23593505     0.01400
H208        H  0.99359184  0.82376679  0.25518636     0.09100
H209        H  0.00200033  0.88688102  0.22777893     0.08200
N210        N  0.08919086  0.88902310  0.27993366    -0.35700
N211        N  0.11279563  0.91439428  0.27953000    -0.27800
C212        C  0.13029991  0.91625905  0.28931969    -0.03100
C213        C  0.11723897  0.89071302  0.29613679     0.05500
C214        C  0.09103604  0.87409154  0.29001613     0.03600
H215        H  0.15104419  0.93485145  0.29130732     0.08700
H216        H  0.07419562  0.85295243  0.29286140     0.07600
N217        N  0.25765205  0.46243455  0.43563335    -0.26800
N218        N  0.25286017  0.47546177  0.44587559    -0.34700
C219        C  0.27474389  0.48622405  0.45451149     0.01500
C220        C  0.29425580  0.47950947  0.44956503     0.07500
C221        C  0.28282547  0.46469552  0.43746464    -0.05600
H222        H  0.27613780  0.49776994  0.46383329     0.08200
H223        H  0.29216008  0.45645108  0.43037952     0.09400
Cu224      Cu  0.21655958  0.47744082  0.44803648     0.44200
Cu225      Cu  0.22914152  0.44100013  0.41999538     0.42000
Cu226      Cu  0.16196765  0.43793053  0.42335633     0.43900
N227        N  0.17739560  0.47399928  0.44879797    -0.34200
N228        N  0.15722949  0.45917287  0.43980734    -0.28500
C229        C  0.13437791  0.46082441  0.44312103    -0.04600
C230        C  0.14042228  0.47739586  0.45481938     0.07700
C231        C  0.16797880  0.48563314  0.45806064     0.01400
H232        H  0.11516183  0.45136492  0.43720224     0.09100
H233        H  0.18031928  0.49918775  0.46649097     0.08200
N234        N  0.17086604  0.41700560  0.40821393    -0.35700
N235        N  0.19536638  0.41824714  0.40682595    -0.27800
C236        C  0.19390476  0.40202819  0.39603199    -0.03100
C237        C  0.16705010  0.38971735  0.39053887     0.05500
C238        C  0.15314448  0.39993323  0.39842285     0.03600
H239        H  0.21099137  0.39916670  0.39253633     0.08700
H240        H  0.13185918  0.39563561  0.39705596     0.07600
N241        N  0.02319219  0.23001104  0.25049250    -0.26800
N242        N  0.03502926  0.22932637  0.23871141    -0.34700
C243        C  0.01750791  0.22552024  0.22855411     0.01500
C244        C  0.99329399  0.22335601  0.23418843     0.07500
C245        C  0.99758832  0.22640801  0.24812792    -0.05600
H246        H  0.02225672  0.22482214  0.21782733     0.08200
H247        H  0.98378238  0.22726562  0.25590037     0.09400
Cu248      Cu  0.07463108  0.23429459  0.23662361     0.44200
Cu249      Cu  0.04403377  0.23912116  0.26892311     0.42000
Cu250      Cu  0.11391118  0.24682522  0.26700833     0.43900
N251        N  0.11329990  0.23703213  0.23684202    -0.34200
N252        N  0.12753645  0.24092166  0.24811693    -0.28500
C253        C  0.15107525  0.24034785  0.24501242    -0.04600
C254        C  0.15178187  0.23625092  0.23107052     0.07700
C255        C  0.12738142  0.23398252  0.22622930     0.01400
H256        H  0.16640742  0.24254597  0.25235981     0.09100
H257        H  0.11986043  0.22943614  0.21585363     0.08200
N258        N  0.09794317  0.25690457  0.28401747    -0.35700
N259        N  0.07282696  0.25451873  0.28474908    -0.27800
C260        C  0.07059054  0.26571966  0.29671580    -0.03100
C261        C  0.09554541  0.27564724  0.30376632     0.05500
C262        C  0.11223495  0.26944933  0.29548940     0.03600
H263        H  0.05244450  0.26710882  0.29987949     0.08700
H264        H  0.13375486  0.27488283  0.29738363     0.07600
C265        C  0.32408786  0.21310636  0.16090475     0.02800
C266        C  0.32227890  0.18677362  0.16197492     0.02700
C267        C  0.30135358  0.16565922  0.17040403    -0.17800
C268        C  0.28246207  0.17053991  0.17800531     0.02800
C269        C  0.28464654  0.19705462  0.17717840     0.02700
C270        C  0.30517015  0.21794678  0.16852592    -0.17800
H271        H  0.30641407  0.23809700  0.16772373     0.04800
H272        H  0.30003711  0.14547560  0.17120554     0.04800
C273        C  0.01763509  0.56085054  0.50416531     0.02800
C274        C  0.01742764  0.53525604  0.50415943     0.02700
C275        C  0.99788244  0.51295454  0.51245821    -0.17800
C276        C  0.97852191  0.51565764  0.52080887     0.02800
C277        C  0.97861849  0.54125837  0.52092989     0.02700
C278        C  0.99848648  0.56375745  0.51268671    -0.17800
H279        H  0.99897224  0.58362237  0.51284761     0.04800
H280        H  0.99782237  0.49329964  0.51245442     0.04800
N281        N  0.72928775  0.60157518  0.57968150    -0.26800
N282        N  0.73192584  0.58248499  0.57250705    -0.34700
C283        C  0.71010436  0.56909902  0.56380784     0.01500
C284        C  0.69283449  0.58020619  0.56568938     0.07500
C285        C  0.70583499  0.60089928  0.57574231    -0.05600
H286        H  0.70758680  0.55318163  0.55636531     0.08200
H287        H  0.69886595  0.61465664  0.57983495     0.09400
Cu288      Cu  0.76595572  0.57677040  0.57443257     0.44200
Cu289      Cu  0.75776813  0.62830807  0.59429821     0.42000
Cu290      Cu  0.81935264  0.62342134  0.59901072     0.43900
N291        N  0.80353205  0.57777783  0.57752752    -0.34200
N292        N  0.82300506  0.59500646  0.58637873    -0.28500
C293        C  0.84567834  0.59218625  0.58510258    -0.04600
C294        C  0.84019850  0.57201718  0.57504139     0.07700
C295        C  0.81333939  0.56348148  0.57039744     0.01400
H296        H  0.86516118  0.60470825  0.59073357     0.09100
H297        H  0.80245348  0.54929666  0.56188772     0.08200
N298        N  0.81078677  0.64988308  0.61056556    -0.35700
N299        N  0.78830002  0.65191541  0.60876813    -0.27800
C300        C  0.78843784  0.67030417  0.61805554    -0.03100
C301        C  0.81194015  0.67994389  0.62618943     0.05500
C302        C  0.82579955  0.66679258  0.62107775     0.03600
H303        H  0.77222090  0.67564357  0.61905342     0.08700
H304        H  0.84524599  0.66918247  0.62475100     0.07600
N305        N  0.94046300  0.85937624  0.76070252    -0.26800
N306        N  0.93358755  0.86937668  0.77152079    -0.34700
C307        C  0.95292672  0.87617430  0.78126834     0.01500
C308        C  0.97307421  0.87033078  0.77629295     0.07500
C309        C  0.96426913  0.85941013  0.76327218    -0.05600
H310        H  0.95164823  0.88357286  0.79142428     0.08200
H311        H  0.97416940  0.85160275  0.75625972     0.09400
Cu312      Cu  0.89680603  0.87078350  0.77272763     0.44200
Cu313      Cu  0.91640837  0.84519267  0.74321406     0.42000
Cu314      Cu  0.85241451  0.84816909  0.74247387     0.43900
N315        N  0.85686599  0.86567859  0.77214195    -0.34200
N316        N  0.84085625  0.85778916  0.76117238    -0.28500
C317        C  0.81535093  0.85394360  0.76466127    -0.04600
C318        C  0.81516034  0.85919974  0.77851556     0.07700
C319        C  0.84193745  0.86694810  0.78288529     0.01400
H320        H  0.79768486  0.84624524  0.75778915     0.09100
H321        H  0.84972813  0.87218743  0.79320522     0.08200
N322        N  0.86639174  0.83347230  0.72630828    -0.35700
N323        N  0.88960839  0.83222216  0.72670404    -0.27800
C324        C  0.89161482  0.81959025  0.71521478    -0.03100
C325        C  0.86866222  0.81268073  0.70711157     0.05500
C326        C  0.85295049  0.82155899  0.71453542     0.03600
H327        H  0.90773366  0.81437817  0.71329440     0.08700
H328        H  0.83270769  0.81862222  0.71181289     0.07600
C329        C  0.60165237  0.83617647  0.84597766     0.02800
C330        C  0.60510425  0.81269735  0.84678258     0.02700
C331        C  0.62786963  0.81314083  0.83985474    -0.17800
C332        C  0.64721504  0.83670022  0.83204482     0.02800
C333        C  0.64273518  0.85951086  0.83059551     0.02700
C334        C  0.62030867  0.85920258  0.83778780    -0.17800
H335        H  0.61755895  0.87715344  0.83713500     0.04800
H336        H  0.63076070  0.79531879  0.84070895     0.04800
N337        N  0.72830070  0.19863067  0.58402802    -0.26800
N338        N  0.73511626  0.21653811  0.57391700    -0.34700
C339        C  0.71359380  0.20543196  0.56504334     0.01500
C340        C  0.69207710  0.17946119  0.56993487     0.07500
C341        C  0.70221996  0.17572486  0.58193381    -0.05600
H342        H  0.71363535  0.21544967  0.55570304     0.08200
H343        H  0.69183718  0.15736551  0.58845179     0.09400
Cu344      Cu  0.77363452  0.25480837  0.57273155     0.44200
Cu345      Cu  0.75555857  0.20538247  0.59966725     0.42000
Cu346      Cu  0.82642298  0.26792835  0.59830001     0.43900
N347        N  0.81362818  0.29135718  0.57389315    -0.34200
N348        N  0.83302230  0.29590564  0.58292720    -0.28500
C349        C  0.85657700  0.32149592  0.58067812    -0.04600
C350        C  0.85163862  0.33354585  0.56975418     0.07700
C351        C  0.82419792  0.31402825  0.56576994     0.01400
H352        H  0.87562709  0.33085022  0.58671900     0.09100
H353        H  0.81277881  0.31609569  0.55753470     0.08200
N354        N  0.81307264  0.23663725  0.61282554    -0.35700
N355        N  0.78701235  0.21401611  0.61333839    -0.27800
C356        C  0.78485729  0.19779183  0.62380479    -0.03100
C357        C  0.81094095  0.21055618  0.63011958     0.05500
C358        C  0.82823821  0.23537396  0.62299154     0.03600
H359        H  0.76550258  0.17837402  0.62670116     0.08700
H360        H  0.85026969  0.25125216  0.62499217     0.07600
N361        N  0.92875380  0.15540545  0.76574491    -0.26800
N362        N  0.91799755  0.13879761  0.77647785    -0.34700
C363        C  0.93649376  0.15054431  0.78676575     0.01500
C364        C  0.96014142  0.17555342  0.78224635     0.07500
C365        C  0.95441198  0.17804387  0.76888776    -0.05600
H366        H  0.93256826  0.14205831  0.79695000     0.08200
H367        H  0.96708499  0.19582821  0.76221785     0.09400
Cu368      Cu  0.87763746  0.10226710  0.77710249     0.44200
Cu369      Cu  0.90665974  0.14866193  0.74796530     0.42000
Cu370      Cu  0.83552840  0.08677507  0.74679137     0.43900
N371        N  0.83623924  0.06776733  0.77521553    -0.34200
N372        N  0.82107737  0.06203265  0.76407702    -0.28500
C373        C  0.79522030  0.03866709  0.76610842    -0.04600
C374        C  0.79379918  0.02936678  0.77924386     0.07700
C375        C  0.82035082  0.04817237  0.78465122     0.01400
H376        H  0.77889205  0.02902143  0.75846916     0.09100
H377        H  0.82750185  0.04780402  0.79476541     0.08200
N378        N  0.85303434  0.11705333  0.73168434    -0.35700
N379        N  0.87901590  0.13977281  0.73217059    -0.27800
C380        C  0.88323651  0.15624781  0.72144028    -0.03100
C381        C  0.85882908  0.14311511  0.71370879     0.05500
C382        C  0.84004496  0.11842248  0.72059575     0.03600
H383        H  0.90220789  0.17688172  0.71979646     0.08700
H384        H  0.81828424  0.10290110  0.71791758     0.07600
C385        C  0.80206732  0.67318402  0.16516173     0.02800
C386        C  0.77909795  0.67693725  0.16281542     0.02700
C387        C  0.77744111  0.69837775  0.16987484    -0.17800
C388        C  0.79837855  0.71628537  0.17922183     0.02800
C389        C  0.82112810  0.71231503  0.18167914     0.02700
C390        C  0.82256216  0.69065517  0.17477132    -0.17800
H391        H  0.84004027  0.68766765  0.17674504     0.04800
H392        H  0.75994631  0.70136788  0.16795396     0.04800
N393        N  0.50775525  0.74562253  0.43232999    -0.26800
N394        N  0.49662693  0.75234058  0.44275890    -0.34700
C395        C  0.49078076  0.73416579  0.45297309     0.01500
C396        C  0.49816322  0.71483410  0.44866534     0.07500
C397        C  0.50896555  0.72279765  0.43556442    -0.05600
H398        H  0.48235109  0.73530646  0.46289120     0.08200
H399        H  0.51825759  0.71352167  0.42910336     0.09400
Cu400      Cu  0.49208167  0.78727586  0.44301521     0.44200
Cu401      Cu  0.52418355  0.76983218  0.41487247     0.42000
Cu402      Cu  0.52902329  0.83787713  0.41594131     0.43900
N403        N  0.49431255  0.82582685  0.44198119    -0.34200
N404        N  0.50814573  0.84458434  0.43225118    -0.28500
C405        C  0.50726787  0.86807376  0.43514408    -0.04600
C406        C  0.49247560  0.86399909  0.44734642     0.07700
C407        C  0.48436196  0.83687416  0.45130722     0.01400
H408        H  0.51770665  0.88718537  0.42913312     0.09100
H409        H  0.47284688  0.82625867  0.46052619     0.08200
N410        N  0.54597345  0.82496766  0.40017281    -0.35700
N411        N  0.54361098  0.79989438  0.39965578    -0.27800
C412        C  0.55616321  0.79786705  0.38809473    -0.03100
C413        C  0.56672206  0.82275816  0.38086712     0.05500
C414        C  0.56016942  0.83956752  0.38895092     0.03600
H415        H  0.55798474  0.77981970  0.38534252     0.08700
H416        H  0.56509086  0.86077627  0.38675394     0.07600
N417        N  0.75414454  0.97364982  0.24720578    -0.26800
N418        N  0.77073797  0.97091237  0.23815947    -0.34700
C419        C  0.78060964  0.99195338  0.22908548     0.01500
C420        C  0.76947922  0.00867815  0.23244668     0.07500
C421        C  0.75298386  0.99659440  0.24409106    -0.05600
H422        H  0.79445667  0.99456101  0.22049905     0.08200
H423        H  0.74120812  0.00400464  0.24995616     0.09400
Cu424      Cu  0.77805786  0.93794851  0.23809072     0.44200
Cu425      Cu  0.73337039  0.94524478  0.26303580     0.42000
Cu426      Cu  0.74060253  0.88339490  0.26352221     0.43900
N427        N  0.77948083  0.90143668  0.23872259    -0.34200
N428        N  0.76614035  0.88156166  0.24802713    -0.28500
C429        C  0.76967581  0.85977258  0.24484216    -0.04600
C430        C  0.78594026  0.86629054  0.23296494     0.07700
C431        C  0.79156967  0.89275802  0.22933411     0.01400
H432        H  0.75954557  0.83987866  0.25024204     0.09100
H433        H  0.80250965  0.90428952  0.22019639     0.08200
N434        N  0.71522806  0.89010969  0.27727213    -0.35700
N435        N  0.71299389  0.91277124  0.27716785    -0.27800
C436        C  0.69525045  0.91083076  0.28733877    -0.03100
C437        C  0.68529356  0.88545835  0.29407065     0.05500
C438        C  0.69877632  0.87309058  0.28747800     0.03600
H439        H  0.69050809  0.92709226  0.28978228     0.08700
H440        H  0.69667596  0.85307827  0.28988406     0.07600
C441        C  0.48632537  0.01807105  0.50152146     0.02800
C442        C  0.46387838  0.02323771  0.50175623     0.02700
C443        C  0.46560279  0.04516723  0.50996751    -0.17800
C444        C  0.48914331  0.06191041  0.51821990     0.02800
C445        C  0.51162603  0.05669561  0.51812038     0.02700
C446        C  0.50994929  0.03477601  0.50980527    -0.17800
H447        H  0.52722112  0.03083360  0.50971144     0.04800
H448        H  0.44840195  0.04921961  0.50993760     0.04800
N449        N  0.44369938  0.31812670  0.58641499    -0.26800
N450        N  0.46316929  0.31620860  0.57919382    -0.34700
C451        C  0.47655982  0.33845267  0.57078084     0.01500
C452        C  0.46506179  0.35527455  0.57287366     0.07500
C453        C  0.44405939  0.34157968  0.58275977    -0.05600
H454        H  0.49247807  0.34136196  0.56323237     0.08200
H455        H  0.42974299  0.34789221  0.58680988     0.09400
Cu456      Cu  0.46840305  0.28186248  0.58001101     0.44200
Cu457      Cu  0.41712824  0.28818120  0.60048546     0.42000
Cu458      Cu  0.41988523  0.22398763  0.60208032     0.43900
N459        N  0.46525553  0.24287072  0.58000461    -0.34200
N460        N  0.44697697  0.22140632  0.58773449    -0.28500
C461        C  0.44787340  0.19826332  0.58406203    -0.04600
C462        C  0.46788976  0.20560451  0.57364272     0.07700
C463        C  0.47837068  0.23402746  0.57130488     0.01400
H464        H  0.43422592  0.17735828  0.58831645     0.09100
H465        H  0.49305980  0.24686126  0.56328024     0.08200
N466        N  0.39541997  0.23312414  0.61525187    -0.35700
N467        N  0.39478717  0.25665202  0.61461630    -0.27800
C468        C  0.37792048  0.25682787  0.62468523    -0.03100
C469        C  0.36743759  0.23227997  0.63206329     0.05500
C470        C  0.37866847  0.21754021  0.62574134     0.03600
H471        H  0.37355738  0.27357446  0.62645597     0.08700
H472        H  0.37530552  0.19726005  0.62869026     0.07600
N473        N  0.19577039  0.09110318  0.76797115    -0.26800
N474        N  0.19281222  0.10195327  0.77960668    -0.34700
C475        C  0.18675463  0.08357392  0.78969113     0.01500
C476        C  0.18550029  0.05974165  0.78418073     0.07500
C477        C  0.19144798  0.06520585  0.77037411    -0.05600
H478        H  0.18345486  0.08729526  0.80027337     0.08200
H479        H  0.19315203  0.05169792  0.76273022     0.09400
Cu480      Cu  0.19671928  0.14096278  0.78148733     0.44200
Cu481      Cu  0.20653532  0.11324050  0.74969273     0.42000
Cu482      Cu  0.20606182  0.17958076  0.75121489     0.43900
N483        N  0.19800402  0.17878108  0.78147636    -0.34200
N484        N  0.20036182  0.19268752  0.77028810    -0.28500
C485        C  0.19837938  0.21532135  0.77366319    -0.04600
C486        C  0.19505966  0.21573703  0.78768303     0.07700
C487        C  0.19468665  0.19217647  0.79228462     0.01400
H488        H  0.19882076  0.23003893  0.76645488     0.09100
H489        H  0.19090251  0.18453886  0.80263641     0.08200
N490        N  0.21764652  0.16503130  0.73417264    -0.35700
N491        N  0.21844755  0.14152626  0.73359776    -0.27800
C492        C  0.23042058  0.14067442  0.72160386    -0.03100
C493        C  0.23725465  0.16463676  0.71426696     0.05500
C494        C  0.22896855  0.17961420  0.72261960     0.03600
H495        H  0.23507431  0.12450611  0.71871017     0.08700
H496        H  0.23287975  0.20063690  0.72092842     0.07600
C497        C  0.14930616  0.36982627  0.86039477     0.02800
C498        C  0.12242993  0.36625853  0.85829594     0.02700
C499        C  0.10314413  0.34477875  0.84947510    -0.17800
C500        C  0.11056411  0.32722749  0.84239512     0.02800
C501        C  0.13758794  0.33107456  0.84438821     0.02700
C502        C  0.15654444  0.35199356  0.85349046    -0.17800
H503        H  0.17729036  0.35484712  0.85495970     0.04800
H504        H  0.08248987  0.34207427  0.84791917     0.04800
C505        C  0.14716224  0.31472683  0.83637984    -0.11500
C506        C  0.15989650  0.32393701  0.82343821     0.04000
C507        C  0.16784403  0.30757246  0.81578352    -0.12000
C508        C  0.16308786  0.28193271  0.82083688     0.18800
C509        C  0.15087563  0.27298893  0.83393230    -0.09100
C510        C  0.14316062  0.28955350  0.84165352    -0.02000
H511        H  0.17763625  0.31476023  0.80580421     0.05400
C512        C  0.17123816  0.26506698  0.81224741     0.20800
H513        H  0.13351568  0.28254320  0.85167022     0.10500
C514        C  0.19385112  0.26232764  0.81623092    -0.15400
C515        C  0.20247792  0.24694465  0.80815608     0.03500
C516        C  0.18845979  0.23424849  0.79583968    -0.10700
C517        C  0.16635566  0.23766894  0.79168314    -0.00800
C518        C  0.15752588  0.25277731  0.79983531    -0.05900
H519        H  0.20489292  0.27232786  0.82561995     0.06500
H520        H  0.15527774  0.22773424  0.78229462     0.09900
Br521      Br  0.14319072  0.23786658  0.84141822    -0.05600
Br522      Br  0.16707958  0.35877943  0.81587350    -0.02600
Br523      Br  0.23436432  0.24517611  0.81406515     0.00300
Br524      Br  0.12577617  0.25486359  0.79395269    -0.04100
C525        C  0.25503298  0.17494872  0.70171383    -0.11500
C526        C  0.24977682  0.18879475  0.69131598     0.04000
C527        C  0.26781838  0.19878725  0.67982322    -0.12000
C528        C  0.29123395  0.19545342  0.67858115     0.18800
C529        C  0.29671506  0.18204863  0.68898243    -0.09100
C530        C  0.27853487  0.17167121  0.70034955    -0.02000
H531        H  0.26348855  0.20901900  0.67178464     0.05400
C532        C  0.30961802  0.20550576  0.66628940     0.20800
H533        H  0.28319190  0.16154453  0.70830655     0.10500
C534        C  0.33464823  0.23239720  0.66651353    -0.15400
C535        C  0.35375610  0.24154291  0.65543858     0.03500
C536        C  0.34789587  0.22348809  0.64395055    -0.10700
C537        C  0.32274150  0.19661991  0.64374199    -0.00800
C538        C  0.30349595  0.18767932  0.65475512    -0.05900
H539        H  0.33961493  0.24601707  0.67546413     0.06500
H540        H  0.31793147  0.18267435  0.63493186     0.09900
Br541      Br  0.32902075  0.17776531  0.68809908    -0.05600
Br542      Br  0.21763206  0.19337367  0.69180987    -0.02600
Br543      Br  0.38843932  0.27789153  0.65702010     0.00300
Br544      Br  0.26926745  0.15088596  0.65375619    -0.04100
C545        C  0.47304389  0.18608477  0.56524927    -0.11500
C546        C  0.50075544  0.19237466  0.56184690     0.04000
C547        C  0.50444201  0.17300058  0.55395324    -0.12000
C548        C  0.48085855  0.14750710  0.54923044     0.18800
C549        C  0.45325894  0.14156763  0.55233633    -0.09100
C550        C  0.44953226  0.16062595  0.56040093    -0.02000
H551        H  0.52575124  0.17766848  0.55160869     0.05400
C552        C  0.48520386  0.12687014  0.54138196     0.20800
H553        H  0.42813766  0.15573697  0.56271560     0.10500
C554        C  0.48173601  0.10302676  0.54800373    -0.15400
C555        C  0.48365141  0.08197357  0.54070010     0.03500
C556        C  0.48950733  0.08484389  0.52656800    -0.10700
C557        C  0.49286008  0.10868483  0.51996817    -0.00800
C558        C  0.49100205  0.12973946  0.52727072    -0.05900
H559        H  0.47670642  0.10041552  0.55882274     0.06500
H560        H  0.49642356  0.11064497  0.50903116     0.09900
Br561      Br  0.42009830  0.10800027  0.54546694    -0.05600
Br562      Br  0.53420976  0.22612518  0.56837050    -0.02600
Br563      Br  0.47555106  0.04859429  0.55021156     0.00300
Br564      Br  0.49512463  0.16131517  0.51748946    -0.04100
C565        C  0.48888509  0.88525933  0.45511885    -0.11500
C566        C  0.49744365  0.89229731  0.46881270     0.04000
C567        C  0.49477618  0.91326959  0.47569594    -0.12000
C568        C  0.48327421  0.92731023  0.46928721     0.18800
C569        C  0.47424714  0.92000276  0.45568580    -0.09100
C570        C  0.47739292  0.89933758  0.44866809    -0.02000
H571        H  0.50209312  0.91896788  0.48609697     0.05400
C572        C  0.48207312  0.95019207  0.47693125     0.20800
H573        H  0.47052779  0.89398741  0.43819072     0.10500
C574        C  0.50033119  0.97860301  0.47308503    -0.15400
C575        C  0.50190084  0.00090224  0.48095278     0.03500
C576        C  0.48510977  0.99494919  0.49291252    -0.10700
C577        C  0.46626398  0.96653202  0.49654192    -0.00800
C578        C  0.46468686  0.94424077  0.48868085    -0.05900
H579        H  0.51378372  0.98345643  0.46406802     0.06500
H580        H  0.45285859  0.96171069  0.50557442     0.09900
Br581      Br  0.45657786  0.93689173  0.44652100    -0.05600
Br582      Br  0.51479992  0.87556300  0.47840677    -0.02600
Br583      Br  0.52669419  0.03911744  0.47483692     0.00300
Br584      Br  0.43824376  0.90596217  0.49425873    -0.04100
C585        C  0.58283953  0.83062604  0.36771566    -0.11500
C586        C  0.57506985  0.81133058  0.35655999     0.04000
C587        C  0.59121717  0.81985300  0.34441821    -0.12000
C588        C  0.61504908  0.84741150  0.34311970     0.18800
C589        C  0.62257717  0.86678192  0.35410835    -0.09100
C590        C  0.60650082  0.85837356  0.36624353    -0.02000
H591        H  0.58509084  0.80496526  0.33591552     0.05400
C592        C  0.63202958  0.85568159  0.33028344     0.20800
H593        H  0.61280001  0.87350625  0.37464482     0.10500
C594        C  0.62606235  0.86904416  0.32010947    -0.15400
C595        C  0.64260580  0.87832007  0.30810772     0.03500
C596        C  0.66599597  0.87463766  0.30623129    -0.10700
C597        C  0.67125893  0.86038805  0.31631815    -0.00800
C598        C  0.65450203  0.85094002  0.32823756    -0.05900
H599        H  0.60839881  0.87223135  0.32151834     0.06500
H600        H  0.68887376  0.85709793  0.31508672     0.09900
Br601      Br  0.65493985  0.90481628  0.35299352    -0.05600
Br602      Br  0.54162526  0.77384167  0.35681134    -0.02600
Br603      Br  0.63063137  0.89385721  0.29440215     0.00300
Br604      Br  0.66330619  0.83214719  0.34163824    -0.04100
C605        C  0.79647524  0.73932251  0.18615260    -0.11500
C606        C  0.77441234  0.73328631  0.19560698     0.04000
C607        C  0.77429517  0.75554763  0.20261912    -0.12000
C608        C  0.79571350  0.78387775  0.20022321     0.18800
C609        C  0.81738974  0.78998291  0.19055468    -0.09100
C610        C  0.81754879  0.76774006  0.18354632    -0.02000
H611        H  0.75752401  0.75076732  0.21003884     0.05400
C612        C  0.79522745  0.80658981  0.20817758     0.20800
H613        H  0.83434481  0.77260349  0.17613737     0.10500
C614        C  0.80359784  0.81104948  0.22183580    -0.15400
C615        C  0.80162480  0.83110405  0.22998201     0.03500
C616        C  0.79082905  0.84679732  0.22447296    -0.10700
C617        C  0.78337461  0.84295346  0.21065828    -0.00800
C618        C  0.78538299  0.82292851  0.20252119    -0.05900
H619        H  0.81159592  0.79879206  0.22616994     0.06500
H620        H  0.77506578  0.85489883  0.20628962     0.09900
Br621      Br  0.84752101  0.82823189  0.18689802    -0.05600
Br622      Br  0.74453753  0.69507296  0.19963185    -0.02600
Br623      Br  0.81527139  0.83725535  0.24829380     0.00300
Br624      Br  0.77332561  0.81771769  0.18394035    -0.04100
C625        C  0.98364048  0.19728157  0.79068604    -0.11500
C626        C  0.01236374  0.21115327  0.78628266     0.04000
C627        C  0.03374333  0.23174305  0.79470954    -0.12000
C628        C  0.02687520  0.23886436  0.80745334     0.18800
C629        C  0.99820917  0.22543062  0.81171268    -0.09100
C630        C  0.97693752  0.20458604  0.80343160    -0.02000
H631        H  0.05578804  0.24217656  0.79134580     0.05400
C632        C  0.04961067  0.26111684  0.81601544     0.20800
H633        H  0.95494432  0.19452308  0.80682975     0.10500
C634        C  0.06201311  0.28964335  0.81239589    -0.15400
C635        C  0.08174136  0.31148845  0.82089900     0.03500
C636        C  0.08977174  0.30480470  0.83309122    -0.10700
C637        C  0.07762193  0.27621935  0.83659760    -0.00800
C638        C  0.05769074  0.25440661  0.82816730    -0.05900
H639        H  0.05569882  0.29492423  0.80310918     0.06500
H640        H  0.08336377  0.27087791  0.84603634     0.09900
Br641      Br  0.98701467  0.23584017  0.82847140    -0.05600
Br642      Br  0.02373571  0.20189973  0.76925102    -0.02600
Br643      Br  0.09661454  0.34996898  0.81550859     0.00300
Br644      Br  0.04182890  0.21584833  0.83373075    -0.04100
C645        C  0.66509267  0.15927394  0.56315605    -0.11500
C646        C  0.63865480  0.14653415  0.57015260     0.04000
C647        C  0.61352984  0.12869606  0.56307001    -0.12000
C648        C  0.61428470  0.12259149  0.54913905     0.18800
C649        C  0.64084563  0.13450953  0.54229718    -0.09100
C650        C  0.66585667  0.15300516  0.54926681    -0.02000
H651        H  0.59325652  0.12003339  0.56839324     0.05400
C652        C  0.58728186  0.10549518  0.54166966     0.20800
H653        H  0.68608342  0.16227729  0.54384231     0.10500
C654        C  0.58238094  0.11768040  0.53050669    -0.15400
C655        C  0.55805698  0.10199282  0.52265497     0.03500
C656        C  0.53732705  0.07406284  0.52635538    -0.10700
C657        C  0.54187784  0.06189747  0.53762095    -0.00800
C658        C  0.56663420  0.07733460  0.54528461    -0.05900
H659        H  0.59804148  0.13929447  0.52762918     0.06500
H660        H  0.52627653  0.04015082  0.54032760     0.09900
Br661      Br  0.64430665  0.12556200  0.52355938    -0.05600
Br662      Br  0.63529604  0.15427102  0.58907085    -0.02600
Br663      Br  0.55552220  0.11868958  0.50627392     0.00300
Br664      Br  0.57179486  0.05839209  0.56003203    -0.04100
C665        C  0.81833430  0.20078554  0.64233972    -0.11500
C666        C  0.80870913  0.17183178  0.64431669     0.04000
C667        C  0.81534173  0.16355804  0.65630951    -0.12000
C668        C  0.83185673  0.18369144  0.66632835     0.18800
C669        C  0.84214718  0.21259192  0.66424452    -0.09100
C670        C  0.83531700  0.22093624  0.65233146    -0.02000
H671        H  0.80799421  0.14134800  0.65774479     0.05400
C672        C  0.83888757  0.17414649  0.67867826     0.20800
H673        H  0.84297261  0.24322943  0.65097356     0.10500
C674        C  0.86583140  0.17771205  0.67962928    -0.15400
C675        C  0.87293710  0.16797605  0.69095929     0.03500
C676        C  0.85270131  0.15425392  0.70158126    -0.10700
C677        C  0.82571396  0.15081156  0.70056649    -0.00800
C678        C  0.81877888  0.16075583  0.68926683    -0.05900
H679        H  0.88125708  0.18777016  0.67140467     0.06500
H680        H  0.81002812  0.14064012  0.70867465     0.09900
Br681      Br  0.86513541  0.24119322  0.67752390    -0.05600
Br682      Br  0.78866257  0.14286489  0.63065844    -0.02600
Br683      Br  0.90978815  0.17231922  0.69070724     0.00300
Br684      Br  0.78189737  0.15622131  0.68882178    -0.04100
C685        C  0.76987183  0.00409847  0.78598612    -0.11500
C686        C  0.74115889  0.99621797  0.78464638     0.04000
C687        C  0.71954083  0.97240601  0.79149823    -0.12000
C688        C  0.72597910  0.95629972  0.79975302     0.18800
C689        C  0.75442546  0.96378527  0.80093514    -0.09100
C690        C  0.77607748  0.98760785  0.79417304    -0.02000
H691        H  0.69765478  0.96679920  0.79064837     0.05400
C692        C  0.70297009  0.93226835  0.80744215     0.20800
H693        H  0.79788061  0.99309709  0.79521949     0.10500
C694        C  0.68485859  0.90644853  0.80066560    -0.15400
C695        C  0.66427386  0.88273595  0.80794234     0.03500
C696        C  0.66208608  0.88465089  0.82223985    -0.10700
C697        C  0.67892132  0.91103700  0.82882554    -0.00800
C698        C  0.69931118  0.93473820  0.82155497    -0.05900
H699        H  0.68694036  0.90469370  0.78972464     0.06500
H700        H  0.67674211  0.91298420  0.83974711     0.09900
Br701      Br  0.76454920  0.94179509  0.81155280    -0.05600
Br702      Br  0.73000501  0.01810837  0.77463418    -0.02600
Br703      Br  0.63866761  0.84886988  0.79786298     0.00300
Br704      Br  0.72176754  0.97002783  0.83129827    -0.04100
C705        C  0.79066738  0.85495143  0.78691010    -0.11500
C706        C  0.78242081  0.83918049  0.79906361     0.04000
C707        C  0.75897870  0.83554734  0.80664984    -0.12000
C708        C  0.74330328  0.84709297  0.80226464     0.18800
C709        C  0.75127844  0.86262953  0.79011232    -0.09100
C710        C  0.77474346  0.86632365  0.78249468    -0.02000
H711        H  0.75264214  0.82326970  0.81591465     0.05400
C712        C  0.71864233  0.84266159  0.81050592     0.20800
H713        H  0.78074979  0.87835046  0.77315871     0.10500
C714        C  0.72312934  0.86060375  0.82174767    -0.15400
C715        C  0.70010545  0.85766546  0.82945217     0.03500
C716        C  0.67207199  0.83730442  0.82555223    -0.10700
C717        C  0.66773349  0.81799945  0.81492229    -0.00800
C718        C  0.69083828  0.82046702  0.80744373    -0.05900
H719        H  0.74460630  0.87685055  0.82455211     0.06500
H720        H  0.64630002  0.80153152  0.81218029     0.09900
Br721      Br  0.73083088  0.87927244  0.78365519    -0.05600
Br722      Br  0.80062696  0.82005262  0.80528113    -0.02600
Br723      Br  0.70801654  0.88048525  0.84571048     0.00300
Br724      Br  0.68367581  0.79316026  0.79320170    -0.04100
C725        C  0.82010108  0.69976625  0.63791692    -0.11500
C726        C  0.82667184  0.69344971  0.65064074     0.04000
C727        C  0.83426257  0.71284819  0.66150381    -0.12000
C728        C  0.83533816  0.73849761  0.65991053     0.18800
C729        C  0.82861403  0.74477133  0.64727825    -0.09100
C730        C  0.82088092  0.72534839  0.63640758    -0.02000
H731        H  0.83908228  0.70781206  0.67128685     0.05400
C732        C  0.84334045  0.75831234  0.67161843     0.20800
H733        H  0.81572771  0.73035143  0.62670433     0.10500
C734        C  0.87160577  0.78084514  0.67277744    -0.15400
C735        C  0.88019118  0.79931174  0.68407563     0.03500
C736        C  0.86023362  0.79517565  0.69447792    -0.10700
C737        C  0.83173131  0.77301112  0.69305452    -0.00800
C738        C  0.82324672  0.75455742  0.68176371    -0.05900
H739        H  0.88704451  0.78399012  0.66487262     0.06500
H740        H  0.81613452  0.76951000  0.70093137     0.09900
Br741      Br  0.82941811  0.77941123  0.64454838    -0.05600
Br742      Br  0.82358139  0.65790373  0.65411295    -0.02600
Br743      Br  0.91899212  0.83053481  0.68430721     0.00300
Br744      Br  0.78413123  0.72433202  0.68062677    -0.04100
C745        C  0.86075939  0.56544422  0.56879661    -0.11500
C746        C  0.85265147  0.53768600  0.56442566     0.04000
C747        C  0.87223183  0.53309754  0.55731895    -0.12000
C748        C  0.90000172  0.55573771  0.55472963     0.18800
C749        C  0.90856403  0.58311608  0.55968796    -0.09100
C750        C  0.88899132  0.58780948  0.56665044    -0.02000
H751        H  0.86577338  0.51185794  0.55374028     0.05400
C752        C  0.91947682  0.55089639  0.54625336     0.20800
H753        H  0.89567318  0.60922036  0.57001548     0.10500
C754        C  0.91971006  0.55379811  0.53210233    -0.15400
C755        C  0.93881663  0.55076807  0.52371605     0.03500
C756        C  0.95821872  0.54485882  0.52953560    -0.10700
C757        C  0.95798533  0.54212388  0.54375794    -0.00800
C758        C  0.93854525  0.54474261  0.55209884    -0.05900
H759        H  0.90502105  0.55856845  0.52758254     0.06500
H760        H  0.97307698  0.53811153  0.54840260     0.09900
Br761      Br  0.94660163  0.61476161  0.55684776    -0.05600
Br762      Br  0.81584671  0.50512381  0.56853223    -0.02600
Br763      Br  0.93688999  0.55416973  0.50439187     0.00300
Br764      Br  0.93872633  0.53992434  0.57138305    -0.04100
C765        C  0.95867624  0.49123288  0.52930475    -0.11500
C766        C  0.93076226  0.47163056  0.52509753     0.04000
C767        C  0.91347592  0.44729187  0.53276532    -0.12000
C768        C  0.92349615  0.44244531  0.54477305     0.18800
C769        C  0.95113772  0.46261976  0.54920558    -0.09100
C770        C  0.96863881  0.48657948  0.54135281    -0.02000
H771        H  0.89234431  0.43177504  0.52920154     0.05400
C772        C  0.90554171  0.41533394  0.55195510     0.20800
H773        H  0.99012488  0.50168648  0.54463922     0.10500
C774        C  0.91495042  0.39624137  0.55264544    -0.15400
C775        C  0.89797117  0.36973413  0.55870826     0.03500
C776        C  0.87080707  0.36176569  0.56391533    -0.10700
C777        C  0.86136934  0.38081264  0.56322674    -0.00800
C778        C  0.87864519  0.40760195  0.55745855    -0.05900
H779        H  0.93543948  0.40184508  0.54825579     0.06500
H780        H  0.84059639  0.37492540  0.56733507     0.09900
Br781      Br  0.96565043  0.45870977  0.56602789    -0.05600
Br782      Br  0.91590636  0.47657914  0.50866378    -0.02600
Br783      Br  0.91210870  0.34459061  0.55879484     0.00300
Br784      Br  0.86508034  0.43324699  0.55776442    -0.04100
C785        C  0.17238606  0.23192510  0.22328145    -0.11500
C786        C  0.18397312  0.24525776  0.21067978     0.04000
C787        C  0.20230535  0.23935194  0.20330563    -0.12000
C788        C  0.20934965  0.22036913  0.20832521     0.18800
C789        C  0.19835612  0.20754915  0.22102461    -0.09100
C790        C  0.18006870  0.21346062  0.22842887    -0.02000
H791        H  0.21121118  0.24966744  0.19363886     0.05400
C792        C  0.22843783  0.21438901  0.20022508     0.20800
H793        H  0.17126969  0.20305631  0.23808551     0.10500
C794        C  0.25670846  0.22661116  0.20426262    -0.15400
C795        C  0.27535240  0.22127028  0.19682517     0.03500
C796        C  0.26562118  0.20334499  0.18520839    -0.10700
C797        C  0.23740928  0.19137486  0.18109515    -0.00800
C798        C  0.21877256  0.19673429  0.18853648    -0.05900
H799        H  0.26423324  0.24031360  0.21323241     0.06500
H800        H  0.22989493  0.17782777  0.17208054     0.09900
Br801      Br  0.20696902  0.18110135  0.22835360    -0.05600
Br802      Br  0.17703284  0.27297383  0.20345532    -0.02600
Br803      Br  0.31369747  0.23872800  0.20301124     0.00300
Br804      Br  0.18020236  0.17902042  0.18260235    -0.04100
C805        C  0.03801572  0.53131808  0.49609038    -0.11500
C806        C  0.06037954  0.53114786  0.50254336     0.04000
C807        C  0.07770560  0.52412266  0.49505028    -0.12000
C808        C  0.07292905  0.51701334  0.48115803     0.18800
C809        C  0.05087564  0.51763419  0.47462634    -0.09100
C810        C  0.03353215  0.52472487  0.48212911    -0.02000
H811        H  0.09450184  0.52344413  0.50015045     0.05400
C812        C  0.09010492  0.50730005  0.47395319     0.20800
H813        H  0.01599696  0.52423359  0.47716415     0.10500
C814        C  0.07747184  0.47837332  0.47059928    -0.15400
C815        C  0.09345355  0.46806312  0.46442481     0.03500
C816        C  0.12265677  0.48695655  0.46156021    -0.10700
C817        C  0.13527726  0.51585220  0.46507874    -0.00800
C818        C  0.11921387  0.52611995  0.47116881    -0.05900
H819        H  0.05518254  0.46370180  0.47301822     0.06500
H820        H  0.15763656  0.53061418  0.46286311     0.09900
Br821      Br  0.04360745  0.50869562  0.45557474    -0.05600
Br822      Br  0.06727157  0.53917725  0.52168233    -0.02600
Br823      Br  0.07469472  0.42781691  0.46112747     0.00300
Br824      Br  0.13763564  0.56607411  0.47514699    -0.04100
C825        C  0.15621250  0.37121377  0.37831563    -0.11500
C826        C  0.12882449  0.34633929  0.37809603     0.04000
C827        C  0.11886854  0.33026815  0.36605268    -0.12000
C828        C  0.13584198  0.33854041  0.35419669     0.18800
C829        C  0.16337952  0.36293606  0.35446201    -0.09100
C830        C  0.17343194  0.37898964  0.36650013    -0.02000
H831        H  0.09781261  0.31122153  0.36591969     0.05400
C832        C  0.12438866  0.32160133  0.34159151     0.20800
H833        H  0.19453430  0.39796984  0.36654550     0.10500
C834        C  0.11265311  0.33048637  0.33186846    -0.15400
C835        C  0.10239008  0.31540965  0.31958433     0.03500
C836        C  0.10393185  0.29103831  0.31693915    -0.10700
C837        C  0.11553015  0.28212662  0.32675912    -0.00800
C838        C  0.12550706  0.29707068  0.33907566    -0.05900
H839        H  0.11194137  0.34950209  0.33376343     0.06500
H840        H  0.11692672  0.26351168  0.32480868     0.09900
Br841      Br  0.18783719  0.37504525  0.33861417    -0.05600
Br842      Br  0.10476502  0.33227267  0.39404857    -0.02600
Br843      Br  0.08881752  0.33051592  0.30644913     0.00300
Br844      Br  0.14109053  0.28370156  0.35203670    -0.04100
C845        C  0.96137150  0.82635942  0.23210582    -0.11500
C846        C  0.95766219  0.80054023  0.22698698     0.04000
C847        C  0.93360532  0.78204406  0.21938483    -0.12000
C848        C  0.91307573  0.78881090  0.21674796     0.18800
C849        C  0.91634244  0.81421454  0.22205281    -0.09100
C850        C  0.94050289  0.83288065  0.22960054    -0.02000
H851        H  0.93126045  0.76261960  0.21516815     0.05400
C852        C  0.88929858  0.76973417  0.20778752     0.20800
H853        H  0.94312819  0.85266341  0.23344444     0.10500
C854        C  0.86375943  0.74793918  0.21352105    -0.15400
C855        C  0.84144472  0.72862936  0.20515772     0.03500
C856        C  0.84446559  0.73144574  0.19089487    -0.10700
C857        C  0.87017789  0.75297124  0.18517920    -0.00800
C858        C  0.89257455  0.77203505  0.19351545    -0.05900
H859        H  0.86142901  0.74565035  0.22449604     0.06500
H860        H  0.87272827  0.75499335  0.17419505     0.09900
Br861      Br  0.88871403  0.82443548  0.21890595    -0.05600
Br862      Br  0.98581757  0.79052714  0.22883172    -0.02600
Br863      Br  0.80803070  0.69784756  0.21355029     0.00300
Br864      Br  0.92738201  0.80062765  0.18501263    -0.04100
C865        C  0.15982356  0.03204975  0.22765208    -0.11500
C866        C  0.15381673  0.05265381  0.22366905     0.04000
C867        C  0.17365448  0.07558436  0.21571751    -0.12000
C868        C  0.19931764  0.07808533  0.21141126     0.18800
C869        C  0.20522914  0.05740363  0.21537448    -0.09100
C870        C  0.18568095  0.03483638  0.22352688    -0.02000
H871        H  0.16909924  0.09160378  0.21290711     0.05400
C872        C  0.21986831  0.10250297  0.20296363     0.20800
H873        H  0.19044074  0.01900215  0.22641387     0.10500
C874        C  0.24690834  0.12200935  0.20815139    -0.15400
C875        C  0.26744736  0.14435241  0.20017847     0.03500
C876        C  0.26090933  0.14775325  0.18687206    -0.10700
C877        C  0.23374637  0.12864980  0.18175074    -0.00800
C878        C  0.21320392  0.10618717  0.18969271    -0.05900
H879        H  0.25220605  0.11950515  0.21836743     0.06500
H880        H  0.22866559  0.13100235  0.17146451     0.09900
Br881      Br  0.23904751  0.05820933  0.20942209    -0.05600
Br882      Br  0.11969914  0.05139887  0.22941069    -0.02600
Br883      Br  0.30438301  0.16911028  0.20770404     0.00300
Br884      Br  0.17693164  0.08039406  0.18170931    -0.04100
C885        C  0.31745121  0.91708315  0.45390916    -0.11500
C886        C  0.32415713  0.94502050  0.45692488     0.04000
C887        C  0.34888157  0.96357149  0.46409257    -0.12000
C888        C  0.36693731  0.95459842  0.46825729     0.18800
C889        C  0.36050818  0.92695609  0.46510625    -0.09100
C890        C  0.33585239  0.90839621  0.45799901    -0.02000
H891        H  0.35371807  0.98480852  0.46671249     0.05400
C892        C  0.39155583  0.97361953  0.47662414     0.20800
H893        H  0.33095210  0.88701428  0.45571442     0.10500
C894        C  0.38818123  0.97240979  0.49083621    -0.15400
C895        C  0.41157162  0.98850053  0.49919393     0.03500
C896        C  0.43863732  0.00637710  0.49325160    -0.10700
C897        C  0.44183902  0.00794097  0.47900868    -0.00800
C898        C  0.41852309  0.99142429  0.47066824    -0.05900
H899        H  0.36742888  0.95829944  0.49541134     0.06500
H900        H  0.46259178  0.02174689  0.47438876     0.09900
Br901      Br  0.38454794  0.91361418  0.47060181    -0.05600
Br902      Br  0.29932061  0.95821363  0.45267830    -0.02600
Br903      Br  0.40582501  0.98401913  0.51857702     0.00300
Br904      Br  0.42449638  0.99296102  0.45128049    -0.04100
C905        C  0.12867971  0.70510014  0.45466642    -0.11500
C906        C  0.13868263  0.68861404  0.46013881     0.04000
C907        C  0.12014154  0.66437410  0.46767010    -0.12000
C908        C  0.09178801  0.65648237  0.47012877     0.18800
C909        C  0.08213846  0.67357785  0.46511634    -0.09100
C910        C  0.10035131  0.69723816  0.45719682    -0.02000
H911        H  0.12789001  0.65162427  0.47166991     0.05400
C912        C  0.07312932  0.63121478  0.47851580     0.20800
H913        H  0.09263949  0.71018581  0.45341824     0.10500
C914        C  0.08017119  0.63122874  0.49216340    -0.15400
C915        C  0.06258341  0.60823143  0.50057805     0.03500
C916        C  0.03748514  0.58478404  0.49536706    -0.10700
C917        C  0.03070296  0.58443732  0.48166210    -0.00800
C918        C  0.04853445  0.60719553  0.47316263    -0.05900
H919        H  0.09923872  0.64938509  0.49632939     0.06500
H920        H  0.01145681  0.56639383  0.47757126     0.09900
Br921      Br  0.04512552  0.66692675  0.46970738    -0.05600
Br922      Br  0.17699519  0.69739361  0.45730836    -0.02600
Br923      Br  0.07351825  0.60979578  0.51911806     0.00300
Br924      Br  0.03897306  0.60395818  0.45425315    -0.04100
C925        C  0.17129407  0.84910719  0.36826500    -0.11500
C926        C  0.19100646  0.86152348  0.35734512     0.04000
C927        C  0.18289936  0.86864521  0.34543747    -0.12000
C928        C  0.15544786  0.86375399  0.34429110     0.18800
C929        C  0.13576301  0.85127530  0.35512726    -0.09100
C930        C  0.14368940  0.84383205  0.36696400    -0.02000
H931        H  0.19799956  0.87797115  0.33703322     0.05400
C932        C  0.14738879  0.87137800  0.33165940     0.20800
H933        H  0.12844855  0.83452022  0.37531506     0.10500
C934        C  0.13375932  0.85061131  0.32145575    -0.15400
C935        C  0.12428930  0.85656800  0.30965912     0.03500
C936        C  0.12821010  0.88373926  0.30804549    -0.10700
C937        C  0.14276057  0.90476824  0.31813479    -0.00800
C938        C  0.15230181  0.89874659  0.32988878    -0.05900
H939        H  0.13040513  0.82963956  0.32271441     0.06500
H940        H  0.14612838  0.92577654  0.31704355     0.09900
Br941      Br  0.09810763  0.84472716  0.35427146    -0.05600
Br942      Br  0.22862107  0.86777377  0.35779504    -0.02600
Br943      Br  0.10792979  0.82725454  0.29586429     0.00300
Br944      Br  0.17123849  0.92815177  0.34345392    -0.04100
C945        C  0.96973501  0.22155724  0.22660995    -0.11500
C946        C  0.94103073  0.20113668  0.22964122     0.04000
C947        C  0.91952430  0.19947206  0.22170759    -0.12000
C948        C  0.92623374  0.21811501  0.21087380     0.18800
C949        C  0.95477670  0.23882001  0.20799402    -0.09100
C950        C  0.97630914  0.24022837  0.21576182    -0.02000
H951        H  0.89750040  0.18342590  0.22389904     0.05400
C952        C  0.90313789  0.21547365  0.20261095     0.20800
H953        H  0.99828853  0.25609480  0.21337714     0.10500
C954        C  0.89178966  0.23237640  0.20591242    -0.15400
C955        C  0.86936115  0.22988004  0.19845693     0.03500
C956        C  0.85764893  0.20971707  0.18770216    -0.10700
C957        C  0.86963282  0.19340553  0.18419713    -0.00800
C958        C  0.89229257  0.19621753  0.19154040    -0.05900
H959        H  0.90039748  0.24749797  0.21433305     0.06500
H960        H  0.86139442  0.17852594  0.17567484     0.09900
Br961      Br  0.96516627  0.26534418  0.19350121    -0.05600
Br962      Br  0.93007929  0.17387380  0.24383205    -0.02600
Br963      Br  0.85530470  0.25411087  0.20357075     0.00300
Br964      Br  0.90814740  0.17381441  0.18597710    -0.04100
C965        C  0.77498656  0.03420309  0.22510875    -0.11500
C966        C  0.75313987  0.03933329  0.22224882     0.04000
C967        C  0.75944007  0.06324714  0.21478759    -0.12000
C968        C  0.78719703  0.08226113  0.21006781     0.18800
C969        C  0.80910309  0.07752479  0.21309936    -0.09100
C970        C  0.80283681  0.05349479  0.22043364    -0.02000
H971        H  0.74250802  0.06684191  0.21247151     0.05400
C972        C  0.79284067  0.10710223  0.20216322     0.20800
H973        H  0.81990873  0.05005079  0.22264181     0.10500
C974        C  0.79191396  0.12929314  0.20889089    -0.15400
C975        C  0.79651958  0.15288392  0.20170302     0.03500
C976        C  0.80245636  0.15458986  0.18760512    -0.10700
C977        C  0.80289197  0.13218530  0.18081505    -0.00800
C978        C  0.79804718  0.10846178  0.18797748    -0.05900
H979        H  0.78731485  0.12809269  0.21974660     0.06500
H980        H  0.80685881  0.13313281  0.16990377     0.09900
Br981      Br  0.84795040  0.10380447  0.20781285    -0.05600
Br982      Br  0.71401190  0.01365786  0.22727228    -0.02600
Br983      Br  0.79293205  0.18144656  0.21137091     0.00300
Br984      Br  0.79748596  0.07795580  0.17790268    -0.04100
C985        C  0.11481240  0.38593903  0.86451068    -0.11500
C986        C  0.12104615  0.41069799  0.85771073     0.04000
C987        C  0.11374446  0.42913502  0.86380347    -0.12000
C988        C  0.10021100  0.42314736  0.87663221     0.18800
C989        C  0.09411930  0.39846125  0.88347945    -0.09100
C990        C  0.10124175  0.37989569  0.87733414    -0.02000
H991        H  0.11806853  0.44789280  0.85840655     0.05400
C992        C  0.09036882  0.44160302  0.88208281     0.20800
H993        H  0.09627231  0.36076071  0.88256711     0.10500
C994        C  0.06141964  0.43202445  0.88126057    -0.15400
C995        C  0.05121585  0.44933709  0.88557517     0.03500
C996        C  0.07025600  0.47684073  0.89086071    -0.10700
C997        C  0.09934761  0.48649173  0.89155440    -0.00800
C998        C  0.10946720  0.46900729  0.88727359    -0.05900
H999        H  0.04678093  0.41112787  0.87699062     0.06500
H1000       H  0.11415609  0.50749870  0.89564804     0.09900
Br1001     Br  0.07645151  0.38957133  0.90124111    -0.05600
Br1002     Br  0.13854374  0.41957787  0.83991557    -0.02600
Br1003     Br  0.01153544  0.43489895  0.88293457     0.00300
Br1004     Br  0.14924154  0.48290952  0.88901276    -0.04100
C1005       C  0.82499316  0.55251076  0.11905771    -0.11500
C1006       C  0.84225620  0.56775739  0.13024472     0.04000
C1007       C  0.83642874  0.58564569  0.13803826    -0.12000
C1008       C  0.81400970  0.58923971  0.13468517     0.18800
C1009       C  0.79749906  0.57501066  0.12315824    -0.09100
C1010       C  0.80288508  0.55654664  0.11552720    -0.02000
H1011       H  0.84995305  0.59745692  0.14655784     0.05400
C1012       C  0.81025608  0.61012736  0.14259014     0.20800
H1013       H  0.78986783  0.54542453  0.10676665     0.10500
C1014       C  0.83185709  0.63886460  0.14188330    -0.15400
C1015       C  0.82964779  0.65956322  0.14924177     0.03500
C1016       C  0.80539690  0.65157802  0.15753819    -0.10700
C1017       C  0.78410422  0.62266189  0.15853390    -0.00800
C1018       C  0.78629683  0.60195256  0.15109509    -0.05900
H1019       H  0.85047601  0.64523687  0.13546132     0.06500
H1020       H  0.76581713  0.61615156  0.16519850     0.09900
Br1021     Br  0.76879674  0.58162833  0.11695144    -0.05600
Br1022     Br  0.87585899  0.56747095  0.13445398    -0.02600
Br1023     Br  0.86006675  0.69842765  0.14718708     0.00300
Br1024     Br  0.75661586  0.56286836  0.15324472    -0.04100
C1025       C  0.83016472  0.35902408  0.11599780    -0.11500
C1026       C  0.80903276  0.33017865  0.11381406     0.04000
C1027       C  0.80827919  0.30933894  0.12189538    -0.12000
C1028       C  0.82815540  0.31678829  0.13221079     0.18800
C1029       C  0.84931256  0.34546280  0.13438790    -0.09100
C1030       C  0.85012707  0.36634375  0.12632692    -0.02000
H1031       H  0.79171742  0.28725204  0.12034879     0.05400
C1032       C  0.82566884  0.29428604  0.14088205     0.20800
H1033       H  0.86641374  0.38842210  0.12814566     0.10500
C1034       C  0.83980798  0.28028468  0.13695301    -0.15400
C1035       C  0.83631732  0.25757334  0.14452785     0.03500
C1036       C  0.81839181  0.24865625  0.15617445    -0.10700
C1037       C  0.80483287  0.26317292  0.16027168    -0.00800
C1038       C  0.80818261  0.28574266  0.15264896    -0.05900
H1039       H  0.85323548  0.28679221  0.12786985     0.06500
H1040       H  0.79154733  0.25686636  0.16939184     0.09900
Br1041     Br  0.87705680  0.35699433  0.14839138    -0.05600
Br1042     Br  0.77915430  0.31809230  0.10090800    -0.02600
Br1043     Br  0.85577424  0.23890476  0.13839003     0.00300
Br1044     Br  0.78822335  0.30405967  0.15850137    -0.04100
C1045       C  0.85453331  0.47268509  0.02038997    -0.11500
C1046       C  0.84287139  0.45144219  0.01008820     0.04000
C1047       C  0.85454935  0.45759845  0.99686332    -0.12000
C1048       C  0.87757664  0.48476884  0.99371312     0.18800
C1049       C  0.88830597  0.50631093  0.00379311    -0.09100
C1050       C  0.87674220  0.50020097  0.01698677    -0.02000
H1051       H  0.84601728  0.44103301  0.98907246     0.05400
C1052       C  0.89191680  0.48983538  0.98028370     0.20800
H1053       H  0.88593128  0.51680582  0.02474125     0.10500
C1054       C  0.88647546  0.50372004  0.97015240    -0.15400
C1055       C  0.90199491  0.51116970  0.95783249     0.03500
C1056       C  0.92362590  0.50503560  0.95566285    -0.10700
C1057       C  0.92807358  0.49005973  0.96565233    -0.00800
C1058       C  0.91243373  0.48245785  0.97785829    -0.05900
H1059       H  0.87036031  0.50905097  0.97191238     0.06500
H1060       H  0.94451792  0.48510396  0.96421173     0.09900
Br1061     Br  0.91982126  0.54394394  0.00017756    -0.05600
Br1062     Br  0.81039699  0.41418010  0.01331137    -0.02600
Br1063     Br  0.89172993  0.52830568  0.94417950     0.00300
Br1064     Br  0.92079332  0.46323834  0.99123558    -0.04100
C1065       C  0.47330426  0.84156097  0.89521978    -0.11500
C1066       C  0.46634228  0.81707313  0.88734575     0.04000
C1067       C  0.48748066  0.81631388  0.87945070    -0.12000
C1068       C  0.51556841  0.83971105  0.87923266     0.18800
C1069       C  0.52238931  0.86426042  0.88696229    -0.09100
C1070       C  0.50143302  0.86486872  0.89496892    -0.02000
H1071       H  0.48207162  0.79732180  0.87355212     0.05400
C1072       C  0.53741901  0.83833442  0.87079073     0.20800
H1073       H  0.50702125  0.88402367  0.90075899     0.10500
C1074       C  0.53550291  0.83729902  0.85651711    -0.15400
C1075       C  0.55627020  0.83671686  0.84825080     0.03500
C1076       C  0.57956348  0.83756113  0.85427900    -0.10700
C1077       C  0.58133662  0.83844142  0.86854545    -0.00800
C1078       C  0.56022788  0.83820053  0.87679946    -0.05900
H1079       H  0.51776874  0.83690280  0.85180582     0.06500
H1080       H  0.59901968  0.83883031  0.87328827     0.09900
Br1081     Br  0.55965307  0.89805361  0.88643724    -0.05600
Br1082     Br  0.42886013  0.78364467  0.88755499    -0.02600
Br1083     Br  0.55133355  0.83344209  0.82886616     0.00300
Br1084     Br  0.56272503  0.83620304  0.89617887    -0.04100
C1085       C  0.43997925  0.15302218  0.12023382    -0.11500
C1086       C  0.42504082  0.13823630  0.13206489     0.04000
C1087       C  0.40642325  0.14475972  0.13869728    -0.12000
C1088       C  0.40275178  0.16620719  0.13382836     0.18800
C1089       C  0.41848857  0.18177566  0.12231915    -0.09100
C1090       C  0.43661228  0.17477981  0.11546253    -0.02000
H1091       H  0.39451441  0.13285900  0.14761130     0.05400
C1092       C  0.38210888  0.17168235  0.14084159     0.20800
H1093       H  0.44853464  0.18670378  0.10655808     0.10500
C1094       C  0.38865307  0.18503861  0.15371623    -0.15400
C1095       C  0.36919154  0.18982002  0.16077242     0.03500
C1096       C  0.34289717  0.18137171  0.15487981    -0.10700
C1097       C  0.33604658  0.16740404  0.14216230    -0.00800
C1098       C  0.35543705  0.16248523  0.13512760    -0.05900
H1099       H  0.40886804  0.19157669  0.15830602     0.06500
H1100       H  0.31557321  0.16032511  0.13771962     0.09900
Br1101     Br  0.41662146  0.21335229  0.11603234    -0.05600
Br1102     Br  0.42834092  0.10813282  0.13922380    -0.02600
Br1103     Br  0.37882870  0.20693351  0.17862228     0.00300
Br1104     Br  0.34422448  0.14217731  0.11803495    -0.04100
C1105       C  0.76362117  0.19328883  0.15601713    -0.11500
C1106       C  0.75875770  0.18063385  0.14294795     0.04000
C1107       C  0.73490176  0.17518142  0.13571071    -0.12000
C1108       C  0.71575816  0.18218257  0.14138691     0.18800
C1109       C  0.72063045  0.19483694  0.15445730    -0.09100
C1110       C  0.74438199  0.20011907  0.16172048    -0.02000
H1111       H  0.73110382  0.16523530  0.12568885     0.05400
C1112       C  0.69041354  0.17546775  0.13367756     0.20800
H1113       H  0.74780663  0.20946082  0.17186731     0.10500
C1114       C  0.66385557  0.15232774  0.13764821    -0.15400
C1115       C  0.63930492  0.14552133  0.13066238     0.03500
C1116       C  0.64128379  0.16190668  0.11944013    -0.10700
C1117       C  0.66794316  0.18474761  0.11531688    -0.00800
C1118       C  0.69245122  0.19177650  0.12244350    -0.05900
H1119       H  0.66227002  0.13955444  0.14621597     0.06500
H1120       H  0.66958247  0.19753561  0.10674717     0.09900
Br1121     Br  0.69565446  0.20560861  0.16263376    -0.05600
Br1122     Br  0.78377381  0.16993613  0.13477575    -0.02600
Br1123     Br  0.60389619  0.11288160  0.13644463     0.00300
Br1124     Br  0.72805069  0.22447081  0.11694080    -0.04100
C1125       C  0.49743559  0.05749938  0.03458304    -0.11500
C1126       C  0.51524186  0.06198402  0.02308452     0.04000
C1127       C  0.50519423  0.04236624  0.01220319    -0.12000
C1128       C  0.47760210  0.01824133  0.01251799     0.18800
C1129       C  0.45999865  0.01351839  0.02402598    -0.09100
C1130       C  0.46992940  0.03307638  0.03489094    -0.02000
H1131       H  0.51877104  0.04620252  0.00331806     0.05400
C1132       C  0.46717451  0.99874508  0.00056582     0.20800
H1133       H  0.45600138  0.02914417  0.04363544     0.10500
C1134       C  0.46341065  0.97169546  0.00143073    -0.15400
C1135       C  0.45277469  0.95247065  0.99040292     0.03500
C1136       C  0.44608039  0.96044411  0.97815593    -0.10700
C1137       C  0.44983249  0.98755898  0.97737485    -0.00800
C1138       C  0.46023712  0.00661965  0.98843325    -0.05900
H1139       H  0.46826648  0.96534282  0.01083055     0.06500
H1140       H  0.44460868  0.99398114  0.96810855     0.09900
Br1141     Br  0.42183449  0.98126560  0.02512272    -0.05600
Br1142     Br  0.55246927  0.09537296  0.02101153    -0.02600
Br1143     Br  0.44546843  0.91496523  0.99319932     0.00300
Br1144     Br  0.46344452  0.04270146  0.98671891    -0.04100
C1145       C  0.09573627  0.86552062  0.82601691    -0.11500
C1146       C  0.07069985  0.86350285  0.83117018     0.04000
C1147       C  0.05243796  0.86550374  0.82229843    -0.12000
C1148       C  0.05890013  0.86979627  0.80830997     0.18800
C1149       C  0.08435516  0.87269382  0.80322259    -0.09100
C1150       C  0.10233584  0.87014654  0.81203963    -0.02000
H1151       H  0.03310636  0.86372397  0.82631713     0.05400
C1152       C  0.03852426  0.87082469  0.79926277     0.20800
H1153       H  0.12180299  0.87223446  0.80802589     0.10500
C1154       C  0.03529018  0.89433170  0.80003367    -0.15400
C1155       C  0.01465818  0.89501224  0.79235102     0.03500
C1156       C  0.99658857  0.87165328  0.78384365    -0.10700
C1157       C  0.00051142  0.84853941  0.78279145    -0.00800
C1158       C  0.02115052  0.84791228  0.79045886    -0.05900
H1159       H  0.04884368  0.91217933  0.80667530     0.06500
H1160       H  0.98683180  0.83042896  0.77631961     0.09900
Br1161     Br  0.09595526  0.88125438  0.78447585    -0.05600
Br1162     Br  0.06133424  0.85949437  0.85028823    -0.02600
Br1163     Br  0.01330652  0.92899951  0.79333077     0.00300
Br1164     Br  0.02377266  0.81465370  0.78914773    -0.04100
C1165       C  0.15290482  0.91572162  0.83026456    -0.11500
C1166       C  0.17385331  0.92616820  0.81982203     0.04000
C1167       C  0.17999889  0.95039676  0.81270467    -0.12000
C1168       C  0.16552132  0.96442351  0.81586213     0.18800
C1169       C  0.14504152  0.95438620  0.82647409    -0.09100
C1170       C  0.13895038  0.93023974  0.83362979    -0.02000
H1171       H  0.19569680  0.95800441  0.80449523     0.05400
C1172       C  0.17128520  0.98887735  0.80764615     0.20800
H1173       H  0.12278473  0.92232819  0.84162887     0.10500
C1174       C  0.15557299  0.98407917  0.79581793    -0.15400
C1175       C  0.16005463  0.00684492  0.78791948     0.03500
C1176       C  0.18066523  0.03491716  0.79184513    -0.10700
C1177       C  0.19626868  0.03960074  0.80374249    -0.00800
C1178       C  0.19183429  0.01682244  0.81158713    -0.05900
H1179       H  0.13944850  0.96256250  0.79286074     0.06500
H1180       H  0.21205772  0.06107605  0.80691573     0.09900
Br1181     Br  0.12440116  0.97256189  0.83122878    -0.05600
Br1182     Br  0.19315558  0.90699065  0.81428758    -0.02600
Br1183     Br  0.13586457  0.99849805  0.77259337     0.00300
Br1184     Br  0.21406876  0.02470367  0.82763727    -0.04100
C1185       C  0.11830605  0.80974165  0.85642325    -0.11500
C1186       C  0.10802082  0.80451313  0.86996307     0.04000
C1187       C  0.10069585  0.77889290  0.87603804    -0.12000
C1188       C  0.10345912  0.75826451  0.86875775     0.18800
C1189       C  0.11318264  0.76326679  0.85509801    -0.09100
C1190       C  0.12042065  0.78886840  0.84902260    -0.02000
H1191       H  0.09254876  0.77489613  0.88643595     0.05400
C1192       C  0.09373637  0.73077098  0.87524955     0.20800
H1193       H  0.12795405  0.79264482  0.83852410     0.10500
C1194       C  0.06449956  0.71212993  0.87739014    -0.15400
C1195       C  0.05400147  0.68572464  0.88338688     0.03500
C1196       C  0.07308540  0.67768347  0.88756112    -0.10700
C1197       C  0.10245861  0.69645731  0.88535423    -0.00800
C1198       C  0.11287426  0.72291334  0.87933262    -0.05900
H1199       H  0.04969169  0.71800476  0.87413421     0.06500
H1200       H  0.11741994  0.69072449  0.88851705     0.09900
Br1201     Br  0.11589185  0.73541305  0.84421344    -0.05600
Br1202     Br  0.10266093  0.83129947  0.88029890    -0.02600
Br1203     Br  0.01334312  0.66111215  0.88440223     0.00300
Br1204     Br  0.15330715  0.74795689  0.87726933    -0.04100
C1205       C  0.17610489  0.86015009  0.86043582    -0.11500
C1206       C  0.18732360  0.87761864  0.87214361     0.04000
C1207       C  0.20873820  0.87759463  0.87940830    -0.12000
C1208       C  0.21912945  0.86020478  0.87524601     0.18800
C1209       C  0.20718593  0.84194228  0.86386307    -0.09100
C1210       C  0.18617302  0.84237622  0.85643729    -0.02000
H1211       H  0.21760879  0.89146512  0.88825593     0.05400
C1212       C  0.24332065  0.86247982  0.88253073     0.20800
H1213       H  0.17816094  0.82927482  0.84731591     0.10500
C1214       C  0.23922138  0.83964297  0.89031616    -0.15400
C1215       C  0.26194939  0.84134547  0.89720895     0.03500
C1216       C  0.28899693  0.86645431  0.89663712    -0.10700
C1217       C  0.29301946  0.88935720  0.88898275    -0.00800
C1218       C  0.27054786  0.88738170  0.88177767    -0.05900
H1219       H  0.21834854  0.82042019  0.89094625     0.06500
H1220       H  0.31390794  0.90855569  0.88832047     0.09900
Br1221     Br  0.21973625  0.81702116  0.85770747    -0.05600
Br1222     Br  0.17404320  0.90174001  0.87867225    -0.02600
Br1223     Br  0.25502593  0.80915272  0.90743562     0.00300
Br1224     Br  0.27844573  0.91852341  0.87039683    -0.04100
C1225       C  0.32171282  0.48765322  0.45584358    -0.11500
C1226       C  0.33246125  0.46938761  0.45579427     0.04000
C1227       C  0.35825105  0.47812782  0.46215030    -0.12000
C1228       C  0.37342156  0.50458977  0.46881280     0.18800
C1229       C  0.36282837  0.52280717  0.46890724    -0.09100
C1230       C  0.33721932  0.51429311  0.46246220    -0.02000
H1231       H  0.36611092  0.46383447  0.46227032     0.05400
C1232       C  0.39948670  0.51209573  0.47617830     0.20800
H1233       H  0.32943478  0.52865367  0.46261158     0.10500
C1234       C  0.42489837  0.52111924  0.46884106    -0.15400
C1235       C  0.44961754  0.52718701  0.47553209     0.03500
C1236       C  0.44920777  0.52484585  0.48984218    -0.10700
C1237       C  0.42358936  0.51542615  0.49710359    -0.00800
C1238       C  0.39881240  0.50882861  0.49038219    -0.05900
H1239       H  0.42532390  0.52289262  0.45784936     0.06500
H1240       H  0.42285245  0.51303645  0.50806440     0.09900
Br1241     Br  0.38257443  0.55941609  0.47774697    -0.05600
Br1242     Br  0.31200749  0.43128848  0.44853149    -0.02600
Br1243     Br  0.48249349  0.53626578  0.46455954     0.00300
Br1244     Br  0.36422909  0.49422627  0.50089645    -0.04100
C1245       C  0.47103966  0.38010489  0.56487322    -0.11500
C1246       C  0.49911054  0.40220215  0.56176597     0.04000
C1247       C  0.50373238  0.42441455  0.55340588    -0.12000
C1248       C  0.48072242  0.42500797  0.54814818     0.18800
C1249       C  0.45275840  0.40345918  0.55153774    -0.09100
C1250       C  0.44808193  0.38126646  0.55988545    -0.02000
H1251       H  0.52530971  0.44133747  0.55103564     0.05400
C1252       C  0.48607976  0.44835627  0.53922206     0.20800
H1253       H  0.42641710  0.36451306  0.56222180     0.10500
C1254       C  0.48644932  0.44469503  0.52503138    -0.15400
C1255       C  0.48989574  0.46591679  0.51628190     0.03500
C1256       C  0.49298438  0.49117103  0.52177706    -0.10700
C1257       C  0.49256594  0.49466714  0.53599187    -0.00800
C1258       C  0.48942929  0.47363794  0.54471166    -0.05900
H1259       H  0.48380798  0.42517805  0.52077357     0.06500
H1260       H  0.49435933  0.51372325  0.54032955     0.09900
Br1261     Br  0.42044539  0.40355858  0.54488930    -0.05600
Br1262     Br  0.53179830  0.40410460  0.56930975    -0.02600
Br1263     Br  0.49068986  0.45967988  0.49698974     0.00300
Br1264     Br  0.48925788  0.48001906  0.56402362    -0.04100
C1265       C  0.54607765  0.54734908  0.52131057    -0.11500
C1266       C  0.55297838  0.56220272  0.53386366     0.04000
C1267       C  0.57659077  0.56663931  0.54099490    -0.12000
C1268       C  0.59426330  0.55749038  0.53552049     0.18800
C1269       C  0.58748229  0.54294067  0.52284081    -0.09100
C1270       C  0.56331603  0.53767986  0.51594003    -0.02000
H1271       H  0.58141705  0.57760190  0.55078470     0.05400
C1272       C  0.61966900  0.56344970  0.54314951     0.20800
H1273       H  0.55820181  0.52644938  0.50621339     0.10500
C1274       C  0.62178732  0.54071296  0.54760737    -0.15400
C1275       C  0.64546750  0.54557831  0.55486843     0.03500
C1276       C  0.66748334  0.57369397  0.55789711    -0.10700
C1277       C  0.66507347  0.59637682  0.55362682    -0.00800
C1278       C  0.64155547  0.59151144  0.54627279    -0.05900
H1279       H  0.60476064  0.51904345  0.54553625     0.06500
H1280       H  0.68181698  0.61808888  0.55584439     0.09900
Br1281     Br  0.61131357  0.53125562  0.51413547    -0.05600
Br1282     Br  0.53068744  0.57659615  0.54166846    -0.02600
Br1283     Br  0.64538737  0.51298163  0.56119857     0.00300
Br1284     Br  0.64095437  0.62402023  0.54033672    -0.04100
C1285       C  0.50059498  0.58382067  0.49212481    -0.11500
C1286       C  0.52259035  0.60148188  0.48284618     0.04000
C1287       C  0.52224352  0.62380347  0.47666807    -0.12000
C1288       C  0.50063604  0.62924398  0.47978521     0.18800
C1289       C  0.47947729  0.61255159  0.48947849    -0.09100
C1290       C  0.47960353  0.59007914  0.49558114    -0.02000
H1291       H  0.53864634  0.63672358  0.46923450     0.05400
C1292       C  0.49956901  0.65128906  0.47219121     0.20800
H1293       H  0.46315474  0.57733762  0.50302487     0.10500
C1294       C  0.48598943  0.64397609  0.45957641    -0.15400
C1295       C  0.48505324  0.66433889  0.45184637     0.03500
C1296       C  0.49770852  0.69252375  0.45679782    -0.10700
C1297       C  0.51086668  0.69969182  0.46957158    -0.00800
C1298       C  0.51212602  0.67934244  0.47721034    -0.05900
H1299       H  0.47611633  0.62231660  0.45573169     0.06500
H1300       H  0.52081944  0.72132874  0.47344655     0.09900
Br1301     Br  0.44995365  0.61959651  0.49457035    -0.05600
Br1302     Br  0.55281651  0.59540762  0.47767462    -0.02600
Br1303     Br  0.46508317  0.65218892  0.43492918     0.00300
Br1304     Br  0.53173277  0.69072798  0.49422929    -0.04100
C1305       C  0.27035134  0.50322377  0.91259367    -0.11500
C1306       C  0.25284140  0.50747532  0.90400321     0.04000
C1307       C  0.23237155  0.48486281  0.89610301    -0.12000
C1308       C  0.22897959  0.45795473  0.89663021     0.18800
C1309       C  0.24611057  0.45353811  0.90532241    -0.09100
C1310       C  0.26640692  0.47603653  0.91331834    -0.02000
H1311       H  0.21910523  0.48828261  0.88945652     0.05400
C1312       C  0.20841713  0.43516529  0.88753336     0.20800
H1313       H  0.27993140  0.47251179  0.91971515     0.10500
C1314       C  0.21460250  0.43686613  0.87351315    -0.15400
C1315       C  0.19573452  0.41563052  0.86453055     0.03500
C1316       C  0.17019433  0.39230264  0.86960207    -0.10700
C1317       C  0.16418504  0.39051873  0.88365448    -0.00800
C1318       C  0.18287070  0.41194669  0.89260391    -0.05900
H1319       H  0.23421289  0.45478431  0.86956442     0.06500
H1320       H  0.14479157  0.37247473  0.88766218     0.09900
Br1321     Br  0.24377836  0.41769405  0.90595866    -0.05600
Br1322     Br  0.25501824  0.54320288  0.90300011    -0.02600
Br1323     Br  0.20558302  0.41978477  0.84546203     0.00300
Br1324     Br  0.17219587  0.40914798  0.91153917    -0.04100
C1325       C  0.58445856  0.78752560  0.85470679    -0.11500
C1326       C  0.59102719  0.78261528  0.86771226     0.04000
C1327       C  0.56936922  0.76221952  0.87606809    -0.12000
C1328       C  0.54122555  0.74592770  0.87149637     0.18800
C1329       C  0.53501592  0.74983098  0.85817677    -0.09100
C1330       C  0.55656681  0.77065780  0.84994523    -0.02000
H1331       H  0.57436573  0.75955964  0.88632048     0.05400
C1332       C  0.51858232  0.72622680  0.88105755     0.20800
H1333       H  0.55140530  0.77435436  0.83993045     0.10500
C1334       C  0.49659183  0.73088455  0.88476910    -0.15400
C1335       C  0.47550564  0.71342675  0.89422439     0.03500
C1336       C  0.47670872  0.69137752  0.90039503    -0.10700
C1337       C  0.49881190  0.68689730  0.89680787    -0.00800
C1338       C  0.51945486  0.70385217  0.88709380    -0.05900
H1339       H  0.49601900  0.74837765  0.88039538     0.06500
H1340       H  0.49964750  0.66970544  0.90136208     0.09900
Br1341     Br  0.49759448  0.72732020  0.85073071    -0.05600
Br1342     Br  0.62873453  0.80464360  0.87486239    -0.02600
Br1343     Br  0.44649206  0.72153548  0.89890418     0.00300
Br1344     Br  0.54759250  0.69476713  0.88198049    -0.04100
C1345       C  0.64661712  0.55641502  0.11061074    -0.11500
C1346       C  0.66695601  0.55130485  0.11596211     0.04000
C1347       C  0.68907176  0.57228655  0.12388456    -0.12000
C1348       C  0.69133617  0.59843872  0.12647496     0.18800
C1349       C  0.67181034  0.60402992  0.12068164    -0.09100
C1350       C  0.64970177  0.58310497  0.11276719    -0.02000
H1351       H  0.70438306  0.56811000  0.12817399     0.05400
C1352       C  0.71340070  0.61913734  0.13576122     0.20800
H1353       H  0.63429529  0.58736828  0.10868253     0.10500
C1354       C  0.73892955  0.64162061  0.13037869    -0.15400
C1355       C  0.76028854  0.66129913  0.13905501     0.03500
C1356       C  0.75624262  0.65826583  0.15328419    -0.10700
C1357       C  0.73033836  0.63630790  0.15863276    -0.00800
C1358       C  0.70898165  0.61671840  0.14997596    -0.05900
H1359       H  0.74218397  0.64383788  0.11942876     0.06500
H1360       H  0.72702857  0.63405036  0.16958118     0.09900
Br1361     Br  0.67385541  0.63943775  0.12387167    -0.05600
Br1362     Br  0.66638078  0.51675558  0.11224916    -0.02600
Br1363     Br  0.79417842  0.69235724  0.13111034     0.00300
Br1364     Br  0.67408583  0.58704455  0.15794637    -0.04100
C1365       C  0.44647034  0.34692880  0.10948605    -0.11500
C1366       C  0.45309324  0.32798872  0.11520931     0.04000
C1367       C  0.43242714  0.30500812  0.12285410    -0.12000
C1368       C  0.40502412  0.30031530  0.12466603     0.18800
C1369       C  0.39801320  0.31841335  0.11844096    -0.09100
C1370       C  0.41867265  0.34148968  0.11092184    -0.02000
H1371       H  0.43773972  0.29079320  0.12744546     0.05400
C1372       C  0.38452372  0.27752223  0.13374381     0.20800
H1373       H  0.41318489  0.35573751  0.10652780     0.10500
C1374       C  0.38670654  0.28258688  0.14785501    -0.15400
C1375       C  0.36721328  0.26191745  0.15684564     0.03500
C1376       C  0.34518833  0.23557190  0.15170982    -0.10700
C1377       C  0.34300726  0.23060820  0.13754716    -0.00800
C1378       C  0.36258564  0.25129815  0.12856714    -0.05900
H1379       H  0.40355346  0.30281272  0.15187227     0.06500
H1380       H  0.32590422  0.21064233  0.13346366     0.09900
Br1381     Br  0.36082316  0.31302574  0.12035758    -0.05600
Br1382     Br  0.48927912  0.33147993  0.11225406    -0.02600
Br1383     Br  0.37197467  0.27067378  0.17599585     0.00300
Br1384     Br  0.35873963  0.24295387  0.10936323    -0.04100
C1385       C  0.48393343  0.50797737  0.03616342    -0.11500
C1386       C  0.46448407  0.49104846  0.02586973     0.04000
C1387       C  0.45353017  0.50291337  0.01742839    -0.12000
C1388       C  0.46182220  0.53148343  0.01892942     0.18800
C1389       C  0.48129323  0.54847615  0.02904320    -0.09100
C1390       C  0.49216017  0.53669250  0.03756489    -0.02000
H1391       H  0.43889936  0.48995953  0.00944798     0.05400
C1392       C  0.45085365  0.54344976  0.00941222     0.20800
H1393       H  0.50692865  0.55005168  0.04540562     0.10500
C1394       C  0.42581529  0.54304262  0.01273649    -0.15400
C1395       C  0.41439309  0.55335047  0.00361440     0.03500
C1396       C  0.42827797  0.56435268  0.99098581    -0.10700
C1397       C  0.45366319  0.56518190  0.98784953    -0.00800
C1398       C  0.46485545  0.55464171  0.99690373    -0.05900
H1399       H  0.41511390  0.53458816  0.02242849     0.06500
H1400       H  0.46446901  0.57336771  0.97815225     0.09900
Br1401     Br  0.49382352  0.58789894  0.03141877    -0.05600
Br1402     Br  0.45366633  0.45246998  0.02193870    -0.02600
Br1403     Br  0.38068606  0.55307829  0.00919981     0.00300
Br1404     Br  0.49894502  0.55533153  0.99168517    -0.04100
loop_ 
_geom_bond_atom_site_label_1 
_geom_bond_atom_site_label_2 
_geom_bond_distance 
_geom_bond_site_symmetry_2 
_ccdc_geom_bond_type 
N1            N2   1.322       .  A
N1            C5   1.342       .  A
N1           Cu9   2.062       .  S
N2            C3   1.346       .  A
N2           Cu8   2.077       .  S
C3            C4   1.386       .  A
C3            H6   1.082       .  S
C4            C5   1.381       .  A
C4         C1365   1.476       .  S
C5            H7   1.082       .  S
Cu8          N11   2.077       .  S
Cu9          N19   2.062       .  S
Cu10         N12   2.066       .  S
Cu10         N18   2.066       .  S
N11          N12   1.322       .  A
N11          C15   1.345       .  A
N12          C13   1.343       .  A
C13          C14   1.382       .  A
C13          H16   1.082       .  S
C14          C15   1.384       .  A
C14        C1345   1.474       .  S
C15          H17   1.082       .  S
N18          N19   1.319       .  A
N18          C22   1.343       .  A
N19          C20   1.343       .  A
C20          C21   1.385       .  A
C20          H23   1.081       .  S
C21          C22   1.386       .  A
C21        C1385   1.480       .  S
C22          H24   1.082       .  S
N25          N26   1.321       .  A
N25          C29   1.344       .  A
N25         Cu33   2.066       .  S
N26          C27   1.344       .  A
N26         Cu32   2.062       .  S
C27          C28   1.382       .  A
C27          H30   1.082       .  S
C28          C29   1.383       .  A
C28        C1336   1.471       .  S
C29          H31   1.082       .  S
Cu32         N35   2.063       .  S
Cu33         N43   2.066       .  S
Cu34         N36   2.070       .  S
Cu34         N42   2.070       .  S
N35          N36   1.321       .  A
N35          C39   1.342       .  A
N36          C37   1.344       .  A
C37          C38   1.385       .  A
C37          H40   1.082       .  S
C38          C39   1.382       .  A
C38        C1305   1.475       .  S
C39          H41   1.082       .  S
N42          N43   1.322       .  A
N42          C46   1.345       .  A
N43          C44   1.342       .  A
C44          C45   1.382       .  A
C44          H47   1.082       .  S
C45          C46   1.384       .  A
C45        C1396   1.474       .  S
C46          H48   1.082       .  S
C49          C50   1.419       .  A
C49          C54   1.403       .  A
C49        C1285   1.484       .  S
C50          C51   1.404       .  A
C50        C1236   1.485       .  S
C51          C52   1.401       .  A
C51          H56   1.085       .  S
C52          C53   1.409       .  A
C52        C1256   1.480       .  S
C53          C54   1.399       .  A
C53        C1265   1.476       .  S
C54          H55   1.084       .  S
C57          C58   1.413       .  A
C57          C62   1.402       .  A
C57        C1185   1.476       .  S
C58          C59   1.402       .  A
C58        C1205   1.482       .  S
C59          C60   1.400       .  A
C59          H64   1.084       .  S
C60          C61   1.413       .  A
C60        C1165   1.480       .  S
C61          C62   1.403       .  A
C61        C1145   1.481       .  S
C62          H63   1.084       .  S
N65          N66   1.322       .  A
N65          C69   1.345       .  A
N65         Cu73   2.069       .  S
N66          C67   1.342       .  A
N66         Cu72   2.060       .  S
C67          C68   1.380       .  A
C67          H70   1.082       .  S
C68          C69   1.382       .  A
C68        C1116   1.468       .  S
C69          H71   1.082       .  S
Cu72         N75   2.060       .  S
Cu73         N83   2.070       .  S
Cu74         N76   2.082       .  S
Cu74         N82   2.083       .  S
N75          N76   1.322       .  A
N75          C79   1.343       .  A
N76          C77   1.347       .  A
C77          C78   1.385       .  A
C77          H80   1.082       .  S
C78          C79   1.379       .  A
C78        C1085   1.472       .  S
C79          H81   1.082       .  S
N82          N83   1.322       .  A
N82          C86   1.344       .  A
N83          C84   1.345       .  A
C84          C85   1.385       .  A
C84          H87   1.081       .  S
C85          C86   1.386       .  A
C85        C1125   1.482       .  S
C86          H88   1.082       .  S
N89          N90   1.323       .  A
N89          C93   1.345       .  A
N89         Cu97   2.072       .  S
N90          C91   1.345       .  A
N90         Cu96   2.075       .  S
C91          C92   1.381       .  A
C91          H94   1.082       .  S
C92          C93   1.381       .  A
C92        C1216   1.469       .  S
C93          H95   1.082       .  S
Cu96         N99   2.075       .  S
Cu97        N107   2.072       .  S
Cu98        N100   2.078       .  S
Cu98        N106   2.078       .  S
N99         N100   1.322       .  A
N99         C103   1.347       .  A
N100        C101   1.343       .  A
C101        C102   1.384       .  A
C101        H104   1.082       .  S
C102        C103   1.385       .  A
C102       C1065   1.479       .  S
C103        H105   1.082       .  S
N106        N107   1.321       .  A
N106        C110   1.347       .  A
N107        C108   1.344       .  A
C108        C109   1.384       .  A
C108        H111   1.082       .  S
C109        C110   1.387       .  A
C109       C1136   1.481       .  S
C110        H112   1.081       .  S
N113        N114   1.322       .  A
N113        C117   1.347       .  A
N113       Cu121   2.080       .  S
N114        C115   1.342       .  A
N114       Cu120   2.062       .  S
C115        C116   1.380       .  A
C115        H118   1.082       .  S
C116        C117   1.386       .  A
C116       C1025   1.474       .  S
C117        H119   1.081       .  S
Cu120       N123   2.062       .  S
Cu121       N131   2.081       .  S
Cu122       N124   2.066       .  S
Cu122       N130   2.067       .  S
N123        N124   1.320       .  A
N123        C127   1.343       .  A
N124        C125   1.345       .  A
C125        C126   1.383       .  A
C125        H128   1.082       .  S
C126        C127   1.383       .  A
C126       C1005   1.474       .  S
C127        H129   1.082       .  S
N130        N131   1.322       .  A
N130        C134   1.343       .  A
N131        C132   1.346       .  A
C132        C133   1.387       .  A
C132        H135   1.081       .  S
C133        C134   1.382       .  A
C133       C1045   1.478       .  S
C134        H136   1.082       .  S
N137        N138   1.322       .  A
N137        C141   1.343       .  A
N137       Cu145   2.073       .  S
N138        C139   1.346       .  A
N138       Cu144   2.077       .  S
C139        C140   1.386       .  A
C139        H142   1.082       .  S
C140        C141   1.384       .  A
C140       C1196   1.482       .  S
C141        H143   1.080       .  S
Cu144       N147   2.077       .  S
Cu145       N155   2.073   1_455  S
Cu146       N148   2.061       .  S
Cu146       N154   2.061   1_455  S
N147        N148   1.322       .  A
N147        C151   1.346       .  A
N148        C149   1.341       .  A
C149        C150   1.381       .  A
C149        H152   1.082       .  S
C150        C151   1.385       .  A
C150        C996   1.474       .  S
C151        H153   1.082       .  S
N154        N155   1.319       .  A
N154        C158   1.342       .  A
N155        C156   1.346       .  A
C156        C157   1.387       .  A
C156        H159   1.081       .  S
C157        C158   1.385       .  A
C157       C1056   1.480       .  S
C158        H160   1.082       .  S
C161        C162   1.411       .  A
C161        C166   1.399       .  A
C161       C1036   1.475       .  S
C162        C163   1.398       .  A
C162       C1105   1.473       .  S
C163        C164   1.398       .  A
C163        H168   1.085       .  S
C164        C165   1.414       .  A
C164        C976   1.476       .  S
C165        C166   1.400       .  A
C165        C956   1.478       .  S
C166        H167   1.085       .  S
N169        N170   1.320       .  A
N169        C173   1.344       .  A
N169       Cu177   2.055       .  S
N170        C171   1.340       .  A
N170       Cu176   2.056       .  S
C171        C172   1.381       .  A
C171        H174   1.082       .  S
C172        C173   1.382       .  A
C172        C885   1.468       .  S
C173        H175   1.082       .  S
Cu176       N179   2.057       .  S
Cu177       N187   2.057       .  S
Cu178       N180   2.085       .  S
Cu178       N186   2.085       .  S
N179        N180   1.321       .  A
N179        C183   1.343       .  A
N180        C181   1.346       .  A
C181        C182   1.387       .  A
C181        H184   1.082       .  S
C182        C183   1.381       .  A
C182        C905   1.478       .  S
C183        H185   1.082       .  S
N186        N187   1.323       .  A
N186        C190   1.346       .  A
N187        C188   1.342       .  A
C188        C189   1.379       .  A
C188        H191   1.082       .  S
C189        C190   1.385       .  A
C189        C925   1.473       .  S
C190        H192   1.082       .  S
N193        N194   1.322       .  A
N193        C197   1.343       .  A
N193       Cu201   2.067       .  S
N194        C195   1.346       .  A
N194       Cu200   2.075       .  S
C195        C196   1.385   1_565  A
C195        H198   1.082       .  S
C196        C197   1.383   1_545  A
C196        C865   1.476       .  S
C197        H199   1.082   1_565  S
Cu200       N203   2.074       .  S
Cu201       N211   2.067       .  S
Cu202       N204   2.074       .  S
Cu202       N210   2.074       .  S
N203        N204   1.322       .  A
N203        C207   1.344       .  A
N204        C205   1.346       .  A
C205        C206   1.384   1_455  A
C205        H208   1.082   1_455  S
C206        C207   1.382   1_655  A
C206        C845   1.476       .  S
C207        H209   1.082       .  S
N210        N211   1.322       .  A
N210        C214   1.344       .  A
N211        C212   1.344       .  A
C212        C213   1.384       .  A
C212        H215   1.082       .  S
C213        C214   1.385       .  A
C213        C936   1.479       .  S
C214        H216   1.081       .  S
N217        N218   1.321       .  A
N217        C221   1.345       .  A
N217       Cu225   2.076       .  S
N218        C219   1.343       .  A
N218       Cu224   2.069       .  S
C219        C220   1.385       .  A
C219        H222   1.082       .  S
C220        C221   1.387       .  A
C220       C1225   1.483       .  S
C221        H223   1.081       .  S
Cu224       N227   2.069       .  S
Cu225       N235   2.075       .  S
Cu226       N228   2.062       .  S
Cu226       N234   2.063       .  S
N227        N228   1.321       .  A
N227        C231   1.344       .  A
N228        C229   1.343       .  A
C229        C230   1.382       .  A
C229        H232   1.082       .  S
C230        C231   1.384       .  A
C230        C816   1.474       .  S
C231        H233   1.082       .  S
N234        N235   1.322       .  A
N234        C238   1.343       .  A
N235        C236   1.345       .  A
C236        C237   1.384       .  A
C236        H239   1.082       .  S
C237        C238   1.381       .  A
C237        C825   1.474       .  S
C238        H240   1.081       .  S
N241        N242   1.322       .  A
N241        C245   1.346   1_455  A
N241       Cu249   2.073       .  S
N242        C243   1.341       .  A
N242       Cu248   2.061       .  S
C243        C244   1.380   1_455  A
C243        H246   1.082       .  S
C244        C245   1.384       .  A
C244        C945   1.472       .  S
C245        H247   1.082       .  S
Cu248       N251   2.061       .  S
Cu249       N259   2.074       .  S
Cu250       N252   2.063       .  S
Cu250       N258   2.064       .  S
N251        N252   1.320       .  A
N251        C255   1.342       .  A
N252        C253   1.344       .  A
C253        C254   1.383       .  A
C253        H256   1.082       .  S
C254        C255   1.382       .  A
C254        C785   1.472       .  S
C255        H257   1.082       .  S
N258        N259   1.323       .  A
N258        C262   1.342       .  A
N259        C260   1.346       .  A
C260        C261   1.384       .  A
C260        H263   1.081       .  S
C261        C262   1.380       .  A
C261        C836   1.472       .  S
C262        H264   1.082       .  S
C265        C266   1.412       .  A
C265        C270   1.401       .  A
C265       C1376   1.481       .  S
C266        C267   1.401       .  A
C266       C1096   1.475       .  S
C267        C268   1.400       .  A
C267        H272   1.084       .  S
C268        C269   1.411       .  A
C268        C876   1.478       .  S
C269        C270   1.401       .  A
C269        C796   1.473       .  S
C270        H271   1.084       .  S
C273        C274   1.409       .  A
C273        C278   1.403   1_455  A
C273        C916   1.477       .  S
C274        C275   1.398   1_455  A
C274        C805   1.473       .  S
C275        C276   1.397       .  A
C275        H280   1.085       .  S
C276        C277   1.412       .  A
C276        C765   1.474       .  S
C277        C278   1.405       .  A
C277        C756   1.482       .  S
C278        H279   1.084       .  S
N281        N282   1.322       .  A
N281        C285   1.343       .  A
N281       Cu289   2.069       .  S
N282        C283   1.346       .  A
N282       Cu288   2.077       .  S
C283        C284   1.386       .  A
C283        H286   1.082       .  S
C284        C285   1.383       .  A
C284       C1276   1.479       .  S
C285        H287   1.082       .  S
Cu288       N291   2.077       .  S
Cu289       N299   2.068       .  S
Cu290       N292   2.064       .  S
Cu290       N298   2.064       .  S
N291        N292   1.322       .  A
N291        C295   1.345       .  A
N292        C293   1.343       .  A
C293        C294   1.383       .  A
C293        H296   1.082       .  S
C294        C295   1.385       .  A
C294        C745   1.477       .  S
C295        H297   1.082       .  S
N298        N299   1.321       .  A
N298        C302   1.343       .  A
N299        C300   1.344       .  A
C300        C301   1.382       .  A
C300        H303   1.082       .  S
C301        C302   1.382       .  A
C301        C725   1.473       .  S
C302        H304   1.081       .  S
N305        N306   1.321       .  A
N305        C309   1.344       .  A
N305       Cu313   2.068       .  S
N306        C307   1.345       .  A
N306       Cu312   2.073       .  S
C307        C308   1.386       .  A
C307        H310   1.081       .  S
C308        C309   1.384       .  A
C308       C1156   1.479       .  S
C309        H311   1.082       .  S
Cu312       N315   2.074       .  S
Cu313       N323   2.068       .  S
Cu314       N316   2.073       .  S
Cu314       N322   2.073       .  S
N315        N316   1.323       .  A
N315        C319   1.344       .  A
N316        C317   1.345       .  A
C317        C318   1.383       .  A
C317        H320   1.082       .  S
C318        C319   1.383       .  A
C318        C705   1.476       .  S
C319        H321   1.082       .  S
N322        N323   1.321       .  A
N322        C326   1.345       .  A
N323        C324   1.343       .  A
C324        C325   1.383       .  A
C324        H327   1.081       .  S
C325        C326   1.385       .  A
C325        C736   1.477       .  S
C326        H328   1.082       .  S
C329        C330   1.412       .  A
C329        C334   1.399       .  A
C329       C1076   1.483       .  S
C330        C331   1.402       .  A
C330       C1325   1.477       .  S
C331        C332   1.404       .  A
C331        H336   1.083       .  S
C332        C333   1.418       .  A
C332        C716   1.482       .  S
C333        C334   1.401       .  A
C333        C696   1.482       .  S
C334        H335   1.084       .  S
N337        N338   1.321       .  A
N337        C341   1.344       .  A
N337       Cu345   2.064       .  S
N338        C339   1.344       .  A
N338       Cu344   2.070       .  S
C339        C340   1.384       .  A
C339        H342   1.082       .  S
C340        C341   1.382       .  A
C340        C645   1.475       .  S
C341        H343   1.082       .  S
Cu344       N347   2.070       .  S
Cu345       N355   2.064       .  S
Cu346       N348   2.073       .  S
Cu346       N354   2.073       .  S
N347        N348   1.323       .  A
N347        C351   1.343       .  A
N348        C349   1.345       .  A
C349        C350   1.382       .  A
C349        H352   1.082       .  S
C350        C351   1.380       .  A
C350        C776   1.470       .  S
C351        H353   1.082       .  S
N354        N355   1.321       .  A
N354        C358   1.345       .  A
N355        C356   1.342       .  A
C356        C357   1.383       .  A
C356        H359   1.081       .  S
C357        C358   1.386       .  A
C357        C665   1.479       .  S
C358        H360   1.082       .  S
N361        N362   1.322       .  A
N361        C365   1.345       .  A
N361       Cu369   2.066       .  S
N362        C363   1.344       .  A
N362       Cu368   2.078       .  S
C363        C364   1.385       .  A
C363        H366   1.082       .  S
C364        C365   1.383       .  A
C364        C625   1.476       .  S
C365        H367   1.082       .  S
Cu368       N371   2.078       .  S
Cu369       N379   2.066       .  S
Cu370       N372   2.070       .  S
Cu370       N378   2.070       .  S
N371        N372   1.322       .  A
N371        C375   1.345       .  A
N372        C373   1.344       .  A
C373        C374   1.384       .  A
C373        H376   1.081       .  S
C374        C375   1.387       .  A
C374        C685   1.482       .  S
C375        H377   1.082       .  S
N378        N379   1.321       .  A
N378        C382   1.344       .  A
N379        C380   1.343       .  A
C380        C381   1.384       .  A
C380        H383   1.081       .  S
C381        C382   1.385       .  A
C381        C676   1.479       .  S
C382        H384   1.082       .  S
C385        C386   1.414       .  A
C385        C390   1.401       .  A
C385       C1016   1.482       .  S
C386        C387   1.400       .  A
C386       C1356   1.475       .  S
C387        C388   1.401       .  A
C387        H392   1.084       .  S
C388        C389   1.412       .  A
C388        C605   1.479       .  S
C389        C390   1.398       .  A
C389        C856   1.475       .  S
C390        H391   1.084       .  S
N393        N394   1.322       .  A
N393        C397   1.345       .  A
N393       Cu401   2.075       .  S
N394        C395   1.346       .  A
N394       Cu400   2.074       .  S
C395        C396   1.383       .  A
C395        H398   1.082       .  S
C396        C397   1.383       .  A
C396       C1296   1.475       .  S
C397        H399   1.082       .  S
Cu400       N403   2.074       .  S
Cu401       N411   2.076       .  S
Cu402       N404   2.085       .  S
Cu402       N410   2.084       .  S
N403        N404   1.323       .  A
N403        C407   1.345       .  A
N404        C405   1.347       .  A
C405        C406   1.385       .  A
C405        H408   1.082       .  S
C406        C407   1.384       .  A
C406        C565   1.481       .  S
C407        H409   1.082       .  S
N410        N411   1.322       .  A
N410        C414   1.346       .  A
N411        C412   1.346       .  A
C412        C413   1.386       .  A
C412        H415   1.081       .  S
C413        C414   1.387       .  A
C413        C585   1.485       .  S
C414        H416   1.082       .  S
N417        N418   1.321       .  A
N417        C421   1.347       .  A
N417       Cu425   2.081       .  S
N418        C419   1.343       .  A
N418       Cu424   2.063       .  S
C419        C420   1.383   1_565  A
C419        H422   1.082       .  S
C420        C421   1.387   1_545  A
C420        C965   1.480       .  S
C421        H423   1.081   1_565  S
Cu424       N427   2.063       .  S
Cu425       N435   2.082       .  S
Cu426       N428   2.082       .  S
Cu426       N434   2.083       .  S
N427        N428   1.322       .  A
N427        C431   1.343       .  A
N428        C429   1.346       .  A
C429        C430   1.385       .  A
C429        H432   1.082       .  S
C430        C431   1.381       .  A
C430        C616   1.475       .  S
C431        H433   1.082       .  S
N434        N435   1.322       .  A
N434        C438   1.347       .  A
N435        C436   1.345       .  A
C436        C437   1.387       .  A
C436        H439   1.080       .  S
C437        C438   1.388       .  A
C437        C596   1.488       .  S
C438        H440   1.082       .  S
C441        C442   1.410       .  A
C441        C446   1.402       .  A
C441        C576   1.486   1_545  S
C442        C443   1.400       .  A
C442        C896   1.471       .  S
C443        C444   1.398       .  A
C443        H448   1.085       .  S
C444        C445   1.414       .  A
C444        C556   1.483       .  S
C445        C446   1.406       .  A
C445        C656   1.475       .  S
C446        H447   1.084       .  S
N449        N450   1.321       .  A
N449        C453   1.344       .  A
N449       Cu457   2.063       .  S
N450        C451   1.343       .  A
N450       Cu456   2.069       .  S
C451        C452   1.383       .  A
C451        H454   1.081       .  S
C452        C453   1.383       .  A
C452       C1245   1.475       .  S
C453        H455   1.082       .  S
Cu456       N459   2.070       .  S
Cu457       N467   2.063       .  S
Cu458       N460   2.083       .  S
Cu458       N466   2.083       .  S
N459        N460   1.322       .  A
N459        C463   1.345       .  A
N460        C461   1.346       .  A
C461        C462   1.386       .  A
C461        H464   1.082       .  S
C462        C463   1.383       .  A
C462        C545   1.479       .  S
C463        H465   1.082       .  S
N466        N467   1.323       .  A
N466        C470   1.347       .  A
N467        C468   1.343       .  A
C468        C469   1.380       .  A
C468        H471   1.081       .  S
C469        C470   1.385       .  A
C469        C536   1.473       .  S
C470        H472   1.082       .  S
N473        N474   1.321       .  A
N473        C477   1.348       .  A
N473       Cu481   2.087       .  S
N474        C475   1.342       .  A
N474       Cu480   2.055       .  S
C475        C476   1.379       .  A
C475        H478   1.082       .  S
C476        C477   1.388       .  A
C476       C1176   1.476       .  S
C477        H479   1.081       .  S
Cu480       N483   2.054       .  S
Cu481       N491   2.088       .  S
Cu482       N484   2.064       .  S
Cu482       N490   2.065       .  S
N483        N484   1.320       .  A
N483        C487   1.340       .  A
N484        C485   1.345       .  A
C485        C486   1.383       .  A
C485        H488   1.082       .  S
C486        C487   1.379       .  A
C486        C516   1.468       .  S
C487        H489   1.082       .  S
N490        N491   1.323       .  A
N490        C494   1.343       .  A
N491        C492   1.346       .  A
C492        C493   1.387       .  A
C492        H495   1.082       .  S
C493        C494   1.382       .  A
C493        C525   1.479       .  S
C494        H496   1.081       .  S
C497        C498   1.411       .  A
C497        C502   1.398       .  A
C497       C1316   1.477       .  S
C498        C499   1.400       .  A
C498        C985   1.471       .  S
C499        C500   1.400       .  A
C499        H504   1.084       .  S
C500        C501   1.411       .  A
C500        C636   1.479       .  S
C501        C502   1.398       .  A
C501        C505   1.468       .  S
C502        H503   1.084       .  S
C505        C506   1.405       .  A
C505        C510   1.400       .  A
C506        C507   1.392       .  A
C506       Br522   1.917       .  S
C507        C508   1.401       .  A
C507        H511   1.084       .  S
C508        C509   1.409       .  A
C508        C512   1.470       .  S
C509        C510   1.397       .  A
C509       Br521   1.919       .  S
C510        H513   1.083       .  S
C512        C514   1.401       .  A
C512        C518   1.408       .  A
C514        C515   1.396       .  A
C514        H519   1.084       .  S
C515        C516   1.409       .  A
C515       Br523   1.920       .  S
C516        C517   1.402       .  A
C517        C518   1.395       .  A
C517        H520   1.084       .  S
C518       Br524   1.921       .  S
C525        C526   1.414       .  A
C525        C530   1.404       .  A
C526        C527   1.401       .  A
C526       Br542   1.920       .  S
C527        C528   1.401       .  A
C527        H531   1.084       .  S
C528        C529   1.405       .  A
C528        C532   1.473       .  S
C529        C530   1.396       .  A
C529       Br541   1.919       .  S
C530        H533   1.083       .  S
C532        C534   1.401       .  A
C532        C538   1.406       .  A
C534        C535   1.398       .  A
C534        H539   1.084       .  S
C535        C536   1.411       .  A
C535       Br543   1.920       .  S
C536        C537   1.403       .  A
C537        C538   1.398       .  A
C537        H540   1.083       .  S
C538       Br544   1.918       .  S
C545        C546   1.412       .  A
C545        C550   1.404       .  A
C546        C547   1.402       .  A
C546       Br562   1.919       .  S
C547        C548   1.402       .  A
C547        H551   1.083       .  S
C548        C549   1.407       .  A
C548        C552   1.478       .  S
C549        C550   1.398       .  A
C549       Br561   1.918       .  S
C550        H553   1.083       .  S
C552        C554   1.403       .  A
C552        C558   1.406       .  A
C554        C555   1.400       .  A
C554        H559   1.083       .  S
C555        C556   1.409       .  A
C555       Br563   1.917       .  S
C556        C557   1.404       .  A
C557        C558   1.399       .  A
C557        H560   1.083       .  S
C558       Br564   1.918       .  S
C565        C566   1.411       .  A
C565        C570   1.405       .  A
C566        C567   1.398       .  A
C566       Br582   1.920       .  S
C567        C568   1.402       .  A
C567        H571   1.084       .  S
C568        C569   1.409       .  A
C568        C572   1.484       .  S
C569        C570   1.404       .  A
C569       Br581   1.918       .  S
C570        H573   1.084       .  S
C572        C574   1.404       .  A
C572        C578   1.409       .  A
C574        C575   1.402   1_565  A
C574        H579   1.083       .  S
C575        C576   1.409   1_545  A
C575       Br583   1.918       .  S
C576        C577   1.403       .  A
C577        C578   1.401       .  A
C577        H580   1.083       .  S
C578       Br584   1.918       .  S
C585        C586   1.415       .  A
C585        C590   1.406       .  A
C586        C587   1.402       .  A
C586       Br602   1.919       .  S
C587        C588   1.401       .  A
C587        H591   1.083       .  S
C588        C589   1.406       .  A
C588        C592   1.480       .  S
C589        C590   1.400       .  A
C589       Br601   1.918       .  S
C590        H593   1.083       .  S
C592        C594   1.401       .  A
C592        C598   1.405       .  A
C594        C595   1.402       .  A
C594        H599   1.083       .  S
C595        C596   1.416       .  A
C595       Br603   1.920       .  S
C596        C597   1.407       .  A
C597        C598   1.401       .  A
C597        H600   1.083       .  S
C598       Br604   1.918       .  S
C605        C606   1.409       .  A
C605        C610   1.404       .  A
C606        C607   1.397       .  A
C606       Br622   1.920       .  S
C607        C608   1.402       .  A
C607        H611   1.084       .  S
C608        C609   1.406       .  A
C608        C612   1.473       .  S
C609        C610   1.397       .  A
C609       Br621   1.918       .  S
C610        H613   1.083       .  S
C612        C614   1.402       .  A
C612        C618   1.406       .  A
C614        C615   1.398       .  A
C614        H619   1.084       .  S
C615        C616   1.409       .  A
C615       Br623   1.918       .  S
C616        C617   1.405       .  A
C617        C618   1.397       .  A
C617        H620   1.083       .  S
C618       Br624   1.919       .  S
C625        C626   1.412   1_655  A
C625        C630   1.403       .  A
C626        C627   1.401       .  A
C626       Br642   1.919       .  S
C627        C628   1.402       .  A
C627        H631   1.084       .  S
C628        C629   1.406   1_455  A
C628        C632   1.474       .  S
C629        C630   1.395       .  A
C629       Br641   1.920       .  S
C630        H633   1.083       .  S
C632        C634   1.401       .  A
C632        C638   1.408       .  A
C634        C635   1.398       .  A
C634        H639   1.084       .  S
C635        C636   1.409       .  A
C635       Br643   1.918       .  S
C636        C637   1.403       .  A
C637        C638   1.397       .  A
C637        H640   1.083       .  S
C638       Br644   1.919       .  S
C645        C646   1.411       .  A
C645        C650   1.402       .  A
C646        C647   1.399       .  A
C646       Br662   1.919       .  S
C647        C648   1.403       .  A
C647        H651   1.083       .  S
C648        C649   1.411       .  A
C648        C652   1.481       .  S
C649        C650   1.396       .  A
C649       Br661   1.921       .  S
C650        H653   1.084       .  S
C652        C654   1.404       .  A
C652        C658   1.411       .  A
C654        C655   1.395       .  A
C654        H659   1.083       .  S
C655        C656   1.406       .  A
C655       Br663   1.918       .  S
C656        C657   1.403       .  A
C657        C658   1.399       .  A
C657        H660   1.083       .  S
C658       Br664   1.919       .  S
C665        C666   1.414       .  A
C665        C670   1.405       .  A
C666        C667   1.398       .  A
C666       Br682   1.920       .  S
C667        C668   1.400       .  A
C667        H671   1.084       .  S
C668        C669   1.405       .  A
C668        C672   1.473       .  S
C669        C670   1.398       .  A
C669       Br681   1.918       .  S
C670        H673   1.083       .  S
C672        C674   1.400       .  A
C672        C678   1.405       .  A
C674        C675   1.398       .  A
C674        H679   1.084       .  S
C675        C676   1.413       .  A
C675       Br683   1.919       .  S
C676        C677   1.406       .  A
C677        C678   1.397       .  A
C677        H680   1.083       .  S
C678       Br684   1.919       .  S
C685        C686   1.415   1_545  A
C685        C690   1.405   1_545  A
C686        C687   1.400       .  A
C686       Br702   1.920   1_565  S
C687        C688   1.400       .  A
C687        H691   1.084       .  S
C688        C689   1.406       .  A
C688        C692   1.475       .  S
C689        C690   1.397       .  A
C689       Br701   1.920       .  S
C690        H693   1.083       .  S
C692        C694   1.402       .  A
C692        C698   1.407       .  A
C694        C695   1.400       .  A
C694        H699   1.083       .  S
C695        C696   1.410       .  A
C695       Br703   1.918       .  S
C696        C697   1.402       .  A
C697        C698   1.396       .  A
C697        H700   1.083       .  S
C698       Br704   1.918       .  S
C705        C706   1.413       .  A
C705        C710   1.404       .  A
C706        C707   1.398       .  A
C706       Br722   1.920       .  S
C707        C708   1.399       .  A
C707        H711   1.084       .  S
C708        C709   1.407       .  A
C708        C712   1.473       .  S
C709        C710   1.399       .  A
C709       Br721   1.919       .  S
C710        H713   1.084       .  S
C712        C714   1.400       .  A
C712        C718   1.407       .  A
C714        C715   1.397       .  A
C714        H719   1.084       .  S
C715        C716   1.410       .  A
C715       Br723   1.918       .  S
C716        C717   1.403       .  A
C717        C718   1.399       .  A
C717        H720   1.083       .  S
C718       Br724   1.918       .  S
C725        C726   1.411       .  A
C725        C730   1.404       .  A
C726        C727   1.397       .  A
C726       Br742   1.920       .  S
C727        C728   1.400       .  A
C727        H731   1.084       .  S
C728        C729   1.405       .  A
C728        C732   1.472       .  S
C729        C730   1.398       .  A
C729       Br741   1.918       .  S
C730        H733   1.083       .  S
C732        C734   1.400       .  A
C732        C738   1.405       .  A
C734        C735   1.398       .  A
C734        H739   1.084       .  S
C735        C736   1.412       .  A
C735       Br743   1.920       .  S
C736        C737   1.405       .  A
C737        C738   1.397       .  A
C737        H740   1.083       .  S
C738       Br744   1.918       .  S
C745        C746   1.412       .  A
C745        C750   1.405       .  A
C746        C747   1.399       .  A
C746       Br762   1.919       .  S
C747        C748   1.400       .  A
C747        H751   1.084       .  S
C748        C749   1.405       .  A
C748        C752   1.471       .  S
C749        C750   1.396       .  A
C749       Br761   1.919       .  S
C750        H753   1.083       .  S
C752        C754   1.400       .  A
C752        C758   1.404       .  A
C754        C755   1.396       .  A
C754        H759   1.084       .  S
C755        C756   1.411       .  A
C755       Br763   1.920       .  S
C756        C757   1.406       .  A
C757        C758   1.398       .  A
C757        H760   1.082       .  S
C758       Br764   1.918       .  S
C765        C766   1.406       .  A
C765        C770   1.401       .  A
C766        C767   1.397       .  A
C766       Br782   1.917       .  S
C767        C768   1.404       .  A
C767        H771   1.083       .  S
C768        C769   1.408       .  A
C768        C772   1.477       .  S
C769        C770   1.396       .  A
C769       Br781   1.919       .  S
C770        H773   1.084       .  S
C772        C774   1.404       .  A
C772        C778   1.408       .  A
C774        C775   1.397       .  A
C774        H779   1.084       .  S
C775        C776   1.408       .  A
C775       Br783   1.919       .  S
C776        C777   1.403       .  A
C777        C778   1.398       .  A
C777        H780   1.084       .  S
C778       Br784   1.920       .  S
C785        C786   1.411       .  A
C785        C790   1.404       .  A
C786        C787   1.397       .  A
C786       Br802   1.920       .  S
C787        C788   1.400       .  A
C787        H791   1.084       .  S
C788        C789   1.405       .  A
C788        C792   1.470       .  S
C789        C790   1.396       .  A
C789       Br801   1.920       .  S
C790        H793   1.083       .  S
C792        C794   1.400       .  A
C792        C798   1.406       .  A
C794        C795   1.396       .  A
C794        H799   1.084       .  S
C795        C796   1.408       .  A
C795       Br803   1.917       .  S
C796        C797   1.401       .  A
C797        C798   1.396       .  A
C797        H800   1.083       .  S
C798       Br804   1.918       .  S
C805        C806   1.407       .  A
C805        C810   1.402       .  A
C806        C807   1.394       .  A
C806       Br822   1.919       .  S
C807        C808   1.401       .  A
C807        H811   1.084       .  S
C808        C809   1.408       .  A
C808        C812   1.472       .  S
C809        C810   1.398       .  A
C809       Br821   1.918       .  S
C810        H813   1.083       .  S
C812        C814   1.402       .  A
C812        C818   1.405       .  A
C814        C815   1.397       .  A
C814        H819   1.084       .  S
C815        C816   1.411       .  A
C815       Br823   1.920       .  S
C816        C817   1.404       .  A
C817        C818   1.396       .  A
C817        H820   1.083       .  S
C818       Br824   1.918       .  S
C825        C826   1.412       .  A
C825        C830   1.403       .  A
C826        C827   1.398       .  A
C826       Br842   1.919       .  S
C827        C828   1.400       .  A
C827        H831   1.084       .  S
C828        C829   1.406       .  A
C828        C832   1.471       .  S
C829        C830   1.397       .  A
C829       Br841   1.918       .  S
C830        H833   1.084       .  S
C832        C834   1.401       .  A
C832        C838   1.405       .  A
C834        C835   1.398       .  A
C834        H839   1.084       .  S
C835        C836   1.411       .  A
C835       Br843   1.919       .  S
C836        C837   1.403       .  A
C837        C838   1.396       .  A
C837        H840   1.084       .  S
C838       Br844   1.918       .  S
C845        C846   1.411       .  A
C845        C850   1.405       .  A
C846        C847   1.397       .  A
C846       Br862   1.919       .  S
C847        C848   1.400       .  A
C847        H851   1.084       .  S
C848        C849   1.406       .  A
C848        C852   1.472       .  S
C849        C850   1.400       .  A
C849       Br861   1.919       .  S
C850        H853   1.084       .  S
C852        C854   1.401       .  A
C852        C858   1.407       .  A
C854        C855   1.399       .  A
C854        H859   1.083       .  S
C855        C856   1.407       .  A
C855       Br863   1.916       .  S
C856        C857   1.401       .  A
C857        C858   1.396       .  A
C857        H860   1.084       .  S
C858       Br864   1.918       .  S
C865        C866   1.410       .  A
C865        C870   1.403       .  A
C866        C867   1.401       .  A
C866       Br882   1.918       .  S
C867        C868   1.404       .  A
C867        H871   1.084       .  S
C868        C869   1.410       .  A
C868        C872   1.481       .  S
C869        C870   1.397       .  A
C869       Br881   1.920       .  S
C870        H873   1.084       .  S
C872        C874   1.404       .  A
C872        C878   1.410       .  A
C874        C875   1.398       .  A
C874        H879   1.083       .  S
C875        C876   1.406       .  A
C875       Br883   1.916       .  S
C876        C877   1.402       .  A
C877        C878   1.399       .  A
C877        H880   1.083       .  S
C878       Br884   1.919       .  S
C885        C886   1.411       .  A
C885        C890   1.403       .  A
C886        C887   1.397       .  A
C886       Br902   1.919       .  S
C887        C888   1.400       .  A
C887        H891   1.084       .  S
C888        C889   1.403       .  A
C888        C892   1.463       .  S
C889        C890   1.392       .  A
C889       Br901   1.920       .  S
C890        H893   1.083       .  S
C892        C894   1.400       .  A
C892        C898   1.404       .  A
C894        C895   1.394       .  A
C894        H899   1.084       .  S
C895        C896   1.408   1_565  A
C895       Br903   1.920       .  S
C896        C897   1.402       .  A
C897        C898   1.394   1_545  A
C897        H900   1.083       .  S
C898       Br904   1.917       .  S
C905        C906   1.412       .  A
C905        C910   1.403       .  A
C906        C907   1.400       .  A
C906       Br922   1.920       .  S
C907        C908   1.403       .  A
C907        H911   1.084       .  S
C908        C909   1.409       .  A
C908        C912   1.480       .  S
C909        C910   1.398       .  A
C909       Br921   1.920       .  S
C910        H913   1.083       .  S
C912        C914   1.404       .  A
C912        C918   1.411       .  A
C914        C915   1.398       .  A
C914        H919   1.083       .  S
C915        C916   1.406       .  A
C915       Br923   1.917       .  S
C916        C917   1.402       .  A
C917        C918   1.399       .  A
C917        H920   1.083       .  S
C918       Br924   1.920       .  S
C925        C926   1.412       .  A
C925        C930   1.402       .  A
C926        C927   1.399       .  A
C926       Br942   1.920       .  S
C927        C928   1.400       .  A
C927        H931   1.084       .  S
C928        C929   1.406       .  A
C928        C932   1.471       .  S
C929        C930   1.396       .  A
C929       Br941   1.918       .  S
C930        H933   1.084       .  S
C932        C934   1.399       .  A
C932        C938   1.405       .  A
C934        C935   1.398       .  A
C934        H939   1.084       .  S
C935        C936   1.413       .  A
C935       Br943   1.920       .  S
C936        C937   1.406       .  A
C937        C938   1.398       .  A
C937        H940   1.083       .  S
C938       Br944   1.919       .  S
C945        C946   1.410       .  A
C945        C950   1.404       .  A
C946        C947   1.398       .  A
C946       Br962   1.918       .  S
C947        C948   1.401       .  A
C947        H951   1.084       .  S
C948        C949   1.404       .  A
C948        C952   1.469       .  S
C949        C950   1.396       .  A
C949       Br961   1.918       .  S
C950        H953   1.084       .  S
C952        C954   1.400       .  A
C952        C958   1.405       .  A
C954        C955   1.397       .  A
C954        H959   1.084       .  S
C955        C956   1.411       .  A
C955       Br963   1.920       .  S
C956        C957   1.403       .  A
C957        C958   1.395       .  A
C957        H960   1.083       .  S
C958       Br964   1.918       .  S
C965        C966   1.413       .  A
C965        C970   1.406       .  A
C966        C967   1.399       .  A
C966       Br982   1.919       .  S
C967        C968   1.401       .  A
C967        H971   1.084       .  S
C968        C969   1.406       .  A
C968        C972   1.475       .  S
C969        C970   1.398       .  A
C969       Br981   1.920       .  S
C970        H973   1.083       .  S
C972        C974   1.402       .  A
C972        C978   1.409       .  A
C974        C975   1.397       .  A
C974        H979   1.083       .  S
C975        C976   1.406       .  A
C975       Br983   1.916       .  S
C976        C977   1.402       .  A
C977        C978   1.398       .  A
C977        H980   1.084       .  S
C978       Br984   1.919       .  S
C985        C986   1.406       .  A
C985        C990   1.401       .  A
C986        C987   1.395       .  A
C986      Br1002   1.917       .  S
C987        C988   1.401       .  A
C987        H991   1.084       .  S
C988        C989   1.407       .  A
C988        C992   1.470       .  S
C989        C990   1.397       .  A
C989      Br1001   1.918       .  S
C990        H993   1.083       .  S
C992        C994   1.399       .  A
C992        C998   1.406       .  A
C994        C995   1.395       .  A
C994        H999   1.084       .  S
C995        C996   1.412       .  A
C995      Br1003   1.920       .  S
C996        C997   1.405       .  A
C997        C998   1.399       .  A
C997       H1000   1.083       .  S
C998      Br1004   1.919       .  S
C1005      C1006   1.409       .  A
C1005      C1010   1.405       .  A
C1006      C1007   1.396       .  A
C1006     Br1022   1.920       .  S
C1007      C1008   1.401       .  A
C1007      H1011   1.084       .  S
C1008      C1009   1.408       .  A
C1008      C1012   1.474       .  S
C1009      C1010   1.399       .  A
C1009     Br1021   1.921       .  S
C1010      H1013   1.083       .  S
C1012      C1014   1.400       .  A
C1012      C1018   1.408       .  A
C1014      C1015   1.394       .  A
C1014      H1019   1.084       .  S
C1015      C1016   1.411       .  A
C1015     Br1023   1.921       .  S
C1016      C1017   1.405       .  A
C1017      C1018   1.398       .  A
C1017      H1020   1.082       .  S
C1018     Br1024   1.919       .  S
C1025      C1026   1.411       .  A
C1025      C1030   1.405       .  A
C1026      C1027   1.397       .  A
C1026     Br1042   1.918       .  S
C1027      C1028   1.400       .  A
C1027      H1031   1.084       .  S
C1028      C1029   1.405       .  A
C1028      C1032   1.469       .  S
C1029      C1030   1.397       .  A
C1029     Br1041   1.918       .  S
C1030      H1033   1.083       .  S
C1032      C1034   1.400       .  A
C1032      C1038   1.406       .  A
C1034      C1035   1.397       .  A
C1034      H1039   1.083       .  S
C1035      C1036   1.408       .  A
C1035     Br1043   1.919       .  S
C1036      C1037   1.402       .  A
C1037      C1038   1.396       .  A
C1037      H1040   1.083       .  S
C1038     Br1044   1.918       .  S
C1045      C1046   1.412       .  A
C1045      C1050   1.405       .  A
C1046      C1047   1.401   1_554  A
C1046     Br1062   1.918       .  S
C1047      C1048   1.402       .  A
C1047      H1051   1.083       .  S
C1048      C1049   1.405   1_556  A
C1048      C1052   1.473       .  S
C1049      C1050   1.396       .  A
C1049     Br1061   1.919       .  S
C1050      H1053   1.083       .  S
C1052      C1054   1.402       .  A
C1052      C1058   1.405       .  A
C1054      C1055   1.401       .  A
C1054      H1059   1.083       .  S
C1055      C1056   1.413       .  A
C1055     Br1063   1.919       .  S
C1056      C1057   1.405       .  A
C1057      C1058   1.395       .  A
C1057      H1060   1.083       .  S
C1058     Br1064   1.919       .  S
C1065      C1066   1.411       .  A
C1065      C1070   1.404       .  A
C1066      C1067   1.402       .  A
C1066     Br1082   1.918       .  S
C1067      C1068   1.404       .  A
C1067      H1071   1.084       .  S
C1068      C1069   1.408       .  A
C1068      C1072   1.479       .  S
C1069      C1070   1.396       .  A
C1069     Br1081   1.920       .  S
C1070      H1073   1.083       .  S
C1072      C1074   1.404       .  A
C1072      C1078   1.408       .  A
C1074      C1075   1.401       .  A
C1074      H1079   1.084       .  S
C1075      C1076   1.408       .  A
C1075     Br1083   1.918       .  S
C1076      C1077   1.403       .  A
C1077      C1078   1.396       .  A
C1077      H1080   1.083       .  S
C1078     Br1084   1.919       .  S
C1085      C1086   1.409       .  A
C1085      C1090   1.403       .  A
C1086      C1087   1.397       .  A
C1086     Br1102   1.919       .  S
C1087      C1088   1.401       .  A
C1087      H1091   1.084       .  S
C1088      C1089   1.408       .  A
C1088      C1092   1.475       .  S
C1089      C1090   1.400       .  A
C1089     Br1101   1.920       .  S
C1090      H1093   1.083       .  S
C1092      C1094   1.402       .  A
C1092      C1098   1.409       .  A
C1094      C1095   1.398       .  A
C1094      H1099   1.083       .  S
C1095      C1096   1.407       .  A
C1095     Br1103   1.917       .  S
C1096      C1097   1.401       .  A
C1097      C1098   1.398       .  A
C1097      H1100   1.083       .  S
C1098     Br1104   1.918       .  S
C1105      C1106   1.407       .  A
C1105      C1110   1.401       .  A
C1106      C1107   1.397       .  A
C1106     Br1122   1.917       .  S
C1107      C1108   1.402       .  A
C1107      H1111   1.083       .  S
C1108      C1109   1.407       .  A
C1108      C1112   1.471       .  S
C1109      C1110   1.396       .  A
C1109     Br1121   1.918       .  S
C1110      H1113   1.083       .  S
C1112      C1114   1.401       .  A
C1112      C1118   1.406       .  A
C1114      C1115   1.396       .  A
C1114      H1119   1.084       .  S
C1115      C1116   1.409       .  A
C1115     Br1123   1.920       .  S
C1116      C1117   1.402       .  A
C1117      C1118   1.398       .  A
C1117      H1120   1.083       .  S
C1118     Br1124   1.919       .  S
C1125      C1126   1.414       .  A
C1125      C1130   1.406       .  A
C1126      C1127   1.401       .  A
C1126     Br1142   1.919       .  S
C1127      C1128   1.402       .  A
C1127      H1131   1.084       .  S
C1128      C1129   1.406       .  A
C1128      C1132   1.478   1_545  S
C1129      C1130   1.397       .  A
C1129     Br1141   1.919   1_545  S
C1130      H1133   1.083       .  S
C1132      C1134   1.402       .  A
C1132      C1138   1.407   1_564  A
C1134      C1135   1.401   1_554  A
C1134      H1139   1.084       .  S
C1135      C1136   1.413       .  A
C1135     Br1143   1.919       .  S
C1136      C1137   1.405       .  A
C1137      C1138   1.398   1_565  A
C1137      H1140   1.083       .  S
C1138     Br1144   1.919       .  S
C1145      C1146   1.408       .  A
C1145      C1150   1.404       .  A
C1146      C1147   1.398       .  A
C1146     Br1162   1.919       .  S
C1147      C1148   1.403       .  A
C1147      H1151   1.084       .  S
C1148      C1149   1.407       .  A
C1148      C1152   1.476       .  S
C1149      C1150   1.397       .  A
C1149     Br1161   1.918       .  S
C1150      H1153   1.083       .  S
C1152      C1154   1.402       .  A
C1152      C1158   1.407       .  A
C1154      C1155   1.400       .  A
C1154      H1159   1.084       .  S
C1155      C1156   1.412   1_455  A
C1155     Br1163   1.919       .  S
C1156      C1157   1.405   1_655  A
C1157      C1158   1.398       .  A
C1157      H1160   1.083   1_455  S
C1158     Br1164   1.920       .  S
C1165      C1166   1.409       .  A
C1165      C1170   1.403       .  A
C1166      C1167   1.398       .  A
C1166     Br1182   1.919       .  S
C1167      C1168   1.401       .  A
C1167      H1171   1.083       .  S
C1168      C1169   1.406       .  A
C1168      C1172   1.473       .  S
C1169      C1170   1.397       .  A
C1169     Br1181   1.918       .  S
C1170      H1173   1.083       .  S
C1172      C1174   1.402       .  A
C1172      C1178   1.405   1_565  A
C1174      C1175   1.399   1_565  A
C1174      H1179   1.084       .  S
C1175      C1176   1.410       .  A
C1175     Br1183   1.918   1_545  S
C1176      C1177   1.405       .  A
C1177      C1178   1.398       .  A
C1177      H1180   1.083       .  S
C1178     Br1184   1.918       .  S
C1185      C1186   1.406       .  A
C1185      C1190   1.402       .  A
C1186      C1187   1.398       .  A
C1186     Br1202   1.917       .  S
C1187      C1188   1.403       .  A
C1187      H1191   1.083       .  S
C1188      C1189   1.409       .  A
C1188      C1192   1.476       .  S
C1189      C1190   1.398       .  A
C1189     Br1201   1.919       .  S
C1190      H1193   1.083       .  S
C1192      C1194   1.399       .  A
C1192      C1198   1.407       .  A
C1194      C1195   1.396       .  A
C1194      H1199   1.084       .  S
C1195      C1196   1.414       .  A
C1195     Br1203   1.920       .  S
C1196      C1197   1.407       .  A
C1197      C1198   1.401       .  A
C1197      H1200   1.083       .  S
C1198     Br1204   1.920       .  S
C1205      C1206   1.409       .  A
C1205      C1210   1.404       .  A
C1206      C1207   1.397       .  A
C1206     Br1222   1.920       .  S
C1207      C1208   1.403       .  A
C1207      H1211   1.084       .  S
C1208      C1209   1.408       .  A
C1208      C1212   1.477       .  S
C1209      C1210   1.397       .  A
C1209     Br1221   1.919       .  S
C1210      H1213   1.082       .  S
C1212      C1214   1.403       .  A
C1212      C1218   1.409       .  A
C1214      C1215   1.400       .  A
C1214      H1219   1.084       .  S
C1215      C1216   1.408       .  A
C1215     Br1223   1.918       .  S
C1216      C1217   1.400       .  A
C1217      C1218   1.397       .  A
C1217      H1220   1.084       .  S
C1218     Br1224   1.920       .  S
C1225      C1226   1.415       .  A
C1225      C1230   1.406       .  A
C1226      C1227   1.400       .  A
C1226     Br1242   1.919       .  S
C1227      C1228   1.400       .  A
C1227      H1231   1.084       .  S
C1228      C1229   1.405       .  A
C1228      C1232   1.476       .  S
C1229      C1230   1.398       .  A
C1229     Br1241   1.917       .  S
C1230      H1233   1.083       .  S
C1232      C1234   1.402       .  A
C1232      C1238   1.406       .  A
C1234      C1235   1.401       .  A
C1234      H1239   1.083       .  S
C1235      C1236   1.411       .  A
C1235     Br1243   1.916       .  S
C1236      C1237   1.404       .  A
C1237      C1238   1.397       .  A
C1237      H1240   1.083       .  S
C1238     Br1244   1.918       .  S
C1245      C1246   1.411       .  A
C1245      C1250   1.404       .  A
C1246      C1247   1.399       .  A
C1246     Br1262   1.920       .  S
C1247      C1248   1.400       .  A
C1247      H1251   1.084       .  S
C1248      C1249   1.405       .  A
C1248      C1252   1.471       .  S
C1249      C1250   1.396       .  A
C1249     Br1261   1.919       .  S
C1250      H1253   1.083       .  S
C1252      C1254   1.402       .  A
C1252      C1258   1.404       .  A
C1254      C1255   1.399       .  A
C1254      H1259   1.084       .  S
C1255      C1256   1.409       .  A
C1255     Br1263   1.918       .  S
C1256      C1257   1.404       .  A
C1257      C1258   1.395       .  A
C1257      H1260   1.082       .  S
C1258     Br1264   1.918       .  S
C1265      C1266   1.407       .  A
C1265      C1270   1.401       .  A
C1266      C1267   1.398       .  A
C1266     Br1282   1.919       .  S
C1267      C1268   1.405       .  A
C1267      H1271   1.083       .  S
C1268      C1269   1.411       .  A
C1268      C1272   1.481       .  S
C1269      C1270   1.398       .  A
C1269     Br1281   1.919       .  S
C1270      H1273   1.084       .  S
C1272      C1274   1.404       .  A
C1272      C1278   1.409       .  A
C1274      C1275   1.400       .  A
C1274      H1279   1.084       .  S
C1275      C1276   1.411       .  A
C1275     Br1283   1.919       .  S
C1276      C1277   1.404       .  A
C1277      C1278   1.397       .  A
C1277      H1280   1.083       .  S
C1278     Br1284   1.920       .  S
C1285      C1286   1.413       .  A
C1285      C1290   1.405       .  A
C1286      C1287   1.398       .  A
C1286     Br1302   1.921       .  S
C1287      C1288   1.400       .  A
C1287      H1291   1.084       .  S
C1288      C1289   1.405       .  A
C1288      C1292   1.473       .  S
C1289      C1290   1.396       .  A
C1289     Br1301   1.917       .  S
C1290      H1293   1.083       .  S
C1292      C1294   1.400       .  A
C1292      C1298   1.406       .  A
C1294      C1295   1.397       .  A
C1294      H1299   1.084       .  S
C1295      C1296   1.409       .  A
C1295     Br1303   1.918       .  S
C1296      C1297   1.405       .  A
C1297      C1298   1.400       .  A
C1297      H1300   1.083       .  S
C1298     Br1304   1.918       .  S
C1305      C1306   1.412       .  A
C1305      C1310   1.404       .  A
C1306      C1307   1.397       .  A
C1306     Br1322   1.920       .  S
C1307      C1308   1.400       .  A
C1307      H1311   1.084       .  S
C1308      C1309   1.406       .  A
C1308      C1312   1.471       .  S
C1309      C1310   1.396       .  A
C1309     Br1321   1.920       .  S
C1310      H1313   1.083       .  S
C1312      C1314   1.401       .  A
C1312      C1318   1.406       .  A
C1314      C1315   1.396       .  A
C1314      H1319   1.084       .  S
C1315      C1316   1.409       .  A
C1315     Br1323   1.919       .  S
C1316      C1317   1.403       .  A
C1317      C1318   1.396       .  A
C1317      H1320   1.082       .  S
C1318     Br1324   1.918       .  S
C1325      C1326   1.406       .  A
C1325      C1330   1.402       .  A
C1326      C1327   1.397       .  A
C1326     Br1342   1.918       .  S
C1327      C1328   1.405       .  A
C1327      H1331   1.083       .  S
C1328      C1329   1.409       .  A
C1328      C1332   1.479       .  S
C1329      C1330   1.397       .  A
C1329     Br1341   1.919       .  S
C1330      H1333   1.084       .  S
C1332      C1334   1.405       .  A
C1332      C1338   1.409       .  A
C1334      C1335   1.398       .  A
C1334      H1339   1.084       .  S
C1335      C1336   1.408       .  A
C1335     Br1343   1.919       .  S
C1336      C1337   1.402       .  A
C1337      C1338   1.397       .  A
C1337      H1340   1.084       .  S
C1338     Br1344   1.919       .  S
C1345      C1346   1.410       .  A
C1345      C1350   1.404       .  A
C1346      C1347   1.398       .  A
C1346     Br1362   1.919       .  S
C1347      C1348   1.401       .  A
C1347      H1351   1.084       .  S
C1348      C1349   1.405       .  A
C1348      C1352   1.471       .  S
C1349      C1350   1.397       .  A
C1349     Br1361   1.918       .  S
C1350      H1353   1.083       .  S
C1352      C1354   1.401       .  A
C1352      C1358   1.406       .  A
C1354      C1355   1.398       .  A
C1354      H1359   1.083       .  S
C1355      C1356   1.408       .  A
C1355     Br1363   1.916       .  S
C1356      C1357   1.401       .  A
C1357      C1358   1.396       .  A
C1357      H1360   1.084       .  S
C1358     Br1364   1.918       .  S
C1365      C1366   1.410       .  A
C1365      C1370   1.404       .  A
C1366      C1367   1.400       .  A
C1366     Br1382   1.919       .  S
C1367      C1368   1.402       .  A
C1367      H1371   1.084       .  S
C1368      C1369   1.405       .  A
C1368      C1372   1.472       .  S
C1369      C1370   1.395       .  A
C1369     Br1381   1.919       .  S
C1370      H1373   1.083       .  S
C1372      C1374   1.400       .  A
C1372      C1378   1.406       .  A
C1374      C1375   1.397       .  A
C1374      H1379   1.084       .  S
C1375      C1376   1.410       .  A
C1375     Br1383   1.917       .  S
C1376      C1377   1.405       .  A
C1377      C1378   1.398       .  A
C1377      H1380   1.083       .  S
C1378     Br1384   1.918       .  S
C1385      C1386   1.414       .  A
C1385      C1390   1.407       .  A
C1386      C1387   1.398       .  A
C1386     Br1402   1.920       .  S
C1387      C1388   1.399       .  A
C1387      H1391   1.084       .  S
C1388      C1389   1.403       .  A
C1388      C1392   1.469       .  S
C1389      C1390   1.396       .  A
C1389     Br1401   1.918       .  S
C1390      H1393   1.083       .  S
C1392      C1394   1.401       .  A
C1392      C1398   1.404   1_554  A
C1394      C1395   1.399       .  A
C1394      H1399   1.084       .  S
C1395      C1396   1.411   1_554  A
C1395     Br1403   1.919       .  S
C1396      C1397   1.404       .  A
C1397      C1398   1.395       .  A
C1397      H1400   1.083       .  S
C1398     Br1404   1.919       .  S
