geometry optimzed in LAMMPS
_audit_creation_date              2020-11-30 
_audit_creation_method            'lammps2cif' 
_symmetry_space_group_name_H-M    'P1' 
_symmetry_Int_Tables_number       1 
_symmetry_cell_setting            triclinic 
loop_ 
_symmetry_equiv_pos_as_xyz 
  x,y,z 
_cell_length_a                    29.52195783 
_cell_length_b                    30.014518340824186 
_cell_length_c                    43.67777327473172 
_cell_angle_alpha                 90.17285911194519 
_cell_angle_beta                  89.3339871070043 
_cell_angle_gamma                 119.81953639228654 
loop_ 
_atom_site_label 
_atom_site_type_symbol 
_atom_site_fract_x 
_atom_site_fract_y 
_atom_site_fract_z 
_atom_site_charge 
Fe1        Fe  0.35756613  0.61958764  0.24804940     1.65800
Fe2        Fe  0.24639902  0.62858194  0.25324839     1.73200
Fe3        Fe  0.36480658  0.73587799  0.24913188     1.54400
O4          O  0.42520926  0.73906253  0.27460570    -0.82500
O5          O  0.24110490  0.66986289  0.21655738    -0.80800
O6          O  0.40784429  0.65904884  0.28326131    -0.85000
O7          O  0.41322414  0.66754706  0.21556357    -0.79900
O8          O  0.33152005  0.74236211  0.28955961    -0.81700
O9          O  0.23378096  0.56980766  0.22336123    -0.84400
C10         C  0.42232449  0.70807612  0.20116114     0.96300
C11         C  0.43445131  0.70695500  0.28790217     1.03800
O12         O  0.32277217  0.66110069  0.25006366    -1.13400
O13         O  0.24424492  0.58458622  0.29055689    -0.75800
O14         O  0.30726331  0.56639756  0.28024918    -0.79300
O15         O  0.40000532  0.73342064  0.20864590    -0.80000
C16         C  0.26772801  0.55958166  0.29595060     0.95200
O17         O  0.31067651  0.57515000  0.21299539    -0.78000
O18         O  0.24841600  0.68304270  0.28347923    -0.83200
C19         C  0.26836215  0.71771021  0.21101761     0.97900
C20         C  0.28369124  0.72190901  0.29733911     1.03800
O21         O  0.31201510  0.74607857  0.22354538    -0.78800
C22         C  0.26193881  0.55543288  0.20898339     1.02100
C23         C  0.38902132  0.20024364  0.12336476     0.85600
C24         C  0.35385267  0.14112273  0.12502376    -0.54600
C25         C  0.30963471  0.12143915  0.10759444     0.08500
C26         C  0.30568510  0.16303621  0.08898726     0.19500
C27         C  0.40045042  0.20946008  0.08855276    -0.55300
C28         C  0.35738487  0.19030687  0.07025500     0.08600
C29         C  0.35250944  0.22120920  0.13075237    -0.54900
C30         C  0.30982165  0.20352011  0.11260638     0.09200
H31         H  0.36340023  0.11670206  0.13856080     0.13700
H32         H  0.26997344  0.14673540  0.07494815    -0.00500
H33         H  0.43915708  0.22683238  0.07878500     0.14000
H34         H  0.36164754  0.25065671  0.14794840     0.13800
C35         C  0.81248550  0.61474243  0.37852074     0.85600
C36         C  0.87238081  0.64688880  0.37517740    -0.54600
C37         C  0.89536448  0.69172991  0.39120653     0.08500
C38         C  0.85609203  0.70052967  0.41019704     0.19500
C39         C  0.80220617  0.60774971  0.41368122    -0.55300
C40         C  0.82680004  0.65204083  0.43078104     0.08600
C41         C  0.79206254  0.65150848  0.37121137    -0.54900
C42         C  0.81375763  0.69604958  0.38743094     0.09200
H43         H  0.89497230  0.63458767  0.36134076     0.13700
H44         H  0.87651398  0.73746877  0.42253545    -0.00500
H45         H  0.77359985  0.57252617  0.42459162     0.14000
H46         H  0.75919613  0.64087617  0.35614877     0.13800
C47         C  0.39303673  0.19689469  0.38147814     0.85600
C48         C  0.35676935  0.21792548  0.37358554    -0.54600
C49         C  0.31316927  0.19975715  0.39158333     0.08500
C50         C  0.30758064  0.15769017  0.41492291     0.19500
C51         C  0.40198323  0.20623225  0.41622590    -0.55300
C52         C  0.35777087  0.18442726  0.43450359     0.08600
C53         C  0.35681197  0.13833564  0.37785861    -0.54900
C54         C  0.31323755  0.11729688  0.39606388     0.09200
H55         H  0.36620642  0.24740735  0.35639052     0.13700
H56         H  0.27039773  0.13828003  0.42768694    -0.00500
H57         H  0.44071656  0.23100330  0.42499652     0.14000
H58         H  0.36392724  0.11455276  0.36212198     0.13800
C59         C  0.20578063  0.81405490  0.38649790     0.85600
C60         C  0.22899721  0.87251144  0.38192917    -0.54600
C61         C  0.20515566  0.89359463  0.39870761     0.08500
C62         C  0.15784476  0.85372886  0.41721912     0.19500
C63         C  0.20325794  0.80568985  0.42152259    -0.55300
C64         C  0.18000108  0.82799619  0.43837058     0.08600
C65         C  0.14890944  0.79277709  0.37731183    -0.54900
C66         C  0.12277613  0.81143190  0.39381891     0.09200
H67         H  0.26054014  0.89587213  0.36655359     0.13700
H68         H  0.13934865  0.87316696  0.42872048    -0.00500
H69         H  0.21680239  0.78158770  0.43158079     0.14000
H70         H  0.12953786  0.76268328  0.36042108     0.13800
C71         C  0.19581501  0.82187282  0.12763883     0.85600
C72         C  0.13764326  0.80033670  0.13483006    -0.54600
C73         C  0.11260730  0.81729887  0.11639715     0.08500
C74         C  0.14892853  0.85645283  0.09198916     0.19500
C75         C  0.19510042  0.80832562  0.09311797    -0.55300
C76         C  0.17200767  0.82763911  0.07412798     0.08600
C77         C  0.21966727  0.88045731  0.12814810    -0.54900
C78         C  0.19545134  0.89897715  0.10969552     0.09200
H79         H  0.11625862  0.76939334  0.15116846     0.13700
H80         H  0.12914727  0.87179361  0.07755363    -0.00500
H81         H  0.20983273  0.78418594  0.08426900     0.14000
H82         H  0.25322619  0.90533531  0.14196510     0.13800
C83         C  0.80556056  0.61281880  0.11896460     0.85600
C84         C  0.78199526  0.64688566  0.12705596    -0.54600
C85         C  0.80123300  0.69082877  0.11022679     0.08500
C86         C  0.84725114  0.69938487  0.08840914     0.19500
C87         C  0.80033376  0.60682847  0.08393483    -0.55300
C88         C  0.82406921  0.65171662  0.06714019     0.08600
C89         C  0.86414622  0.64901270  0.12493268    -0.54900
C90         C  0.88645239  0.69378184  0.10859198     0.09200
H91         H  0.75057788  0.63628324  0.14361500     0.13700
H92         H  0.86773071  0.73684173  0.07694195    -0.00500
H93         H  0.77681675  0.56936057  0.07373273     0.11400
H94         H  0.88671868  0.64025860  0.14076360     0.13800
C95         C  0.59503783  0.79347432  0.11136086     0.85600
C96         C  0.63098839  0.85144448  0.11704830    -0.54600
C97         C  0.67653316  0.87399007  0.10074086     0.08500
C98         C  0.68457599  0.83539008  0.08158480     0.19500
C99         C  0.59050752  0.78733226  0.07606882    -0.55300
C100        C  0.63714828  0.81066985  0.05974489     0.08600
C101        C  0.63000226  0.77139312  0.12015792    -0.54900
C102        C  0.67607830  0.79162018  0.10434003     0.09200
H103        H  0.62266325  0.87377739  0.13325390     0.13700
H104        H  0.72304098  0.85526934  0.07013089    -0.00500
H105        H  0.55292287  0.76443177  0.06544364     0.14000
H106        H  0.61853049  0.74058470  0.13671356     0.13800
C107        C  0.18888762  0.38818963  0.38404384     0.85600
C108        C  0.13095174  0.34748442  0.37917567    -0.54600
C109        C  0.11279575  0.30334457  0.39592967     0.08500
C110        C  0.15570829  0.30328534  0.41577758     0.19500
C111        C  0.19417079  0.39612376  0.41890996    -0.55300
C112        C  0.17614668  0.35214264  0.43604449     0.08600
C113        C  0.21732946  0.35805562  0.37643868    -0.54900
C114        C  0.20112577  0.31444764  0.39338454     0.09200
H115        H  0.10599722  0.35194236  0.36313211     0.13700
H116        H  0.14136620  0.26655624  0.42803449    -0.00500
H117        H  0.21078951  0.43395254  0.42918386     0.14000
H118        H  0.24891960  0.37091110  0.35972800     0.13800
C119        C  0.81364810  0.19884331  0.37913399     0.85600
C120        C  0.78740535  0.14195009  0.37009724    -0.54600
C121        C  0.80053648  0.11233165  0.38741813     0.08500
C122        C  0.84172750  0.14356464  0.41197075     0.19500
C123        C  0.80345375  0.19908143  0.41400835    -0.55300
C124        C  0.81760828  0.17015531  0.43146328     0.08600
C125        C  0.87271190  0.21767583  0.37840883    -0.54900
C126        C  0.88780138  0.18818783  0.39434185     0.09200
H127        H  0.75927183  0.12607098  0.35172794     0.13700
H128        H  0.85308933  0.11973228  0.42565257    -0.00500
H129        H  0.78856093  0.22220716  0.42430037     0.14000
H130        H  0.90157863  0.25400212  0.36848030     0.13800
C131        C  0.61389879  0.80166980  0.37127240     0.85600
C132        C  0.65080242  0.78035198  0.36646340    -0.54600
C133        C  0.69642283  0.80503001  0.38199494     0.08500
C134        C  0.70099459  0.85046079  0.40217157     0.19500
C135        C  0.60715094  0.79823898  0.40686494    -0.55300
C136        C  0.65237368  0.82490817  0.42339714     0.08600
C137        C  0.64708849  0.85910068  0.36390198    -0.54900
C138        C  0.69120487  0.88592710  0.38076970     0.09200
H139        H  0.63984400  0.74548289  0.35354534     0.13700
H140        H  0.73775676  0.87219700  0.41467407    -0.00500
H141        H  0.57127809  0.77181225  0.41864427     0.14000
H142        H  0.63508770  0.87746333  0.34697427     0.13800
C143        C  0.79979159  0.18028521  0.11980498     0.85600
C144        C  0.85861629  0.19979060  0.12386230    -0.54600
C145        C  0.87851131  0.17505277  0.10659587     0.08500
C146        C  0.83666023  0.13267365  0.08599672     0.19500
C147        C  0.79651236  0.18627286  0.08468868    -0.55300
C148        C  0.81463173  0.16074944  0.06667800     0.08600
C149        C  0.77299056  0.12231266  0.12522899    -0.54900
C150        C  0.79145836  0.09714283  0.10774127     0.09200
H151        H  0.88302544  0.23205354  0.13851582     0.13700
H152        H  0.85151195  0.11138025  0.07240511    -0.00500
H153        H  0.78511478  0.21166795  0.07433935     0.14000
H154        H  0.74003575  0.10223472  0.14088647     0.13800
C155        C  0.17529761  0.38223593  0.12464798     0.85600
C156        C  0.20425963  0.35254899  0.13053660    -0.54600
C157        C  0.19134194  0.31167957  0.11195954     0.08500
C158        C  0.14933577  0.30367291  0.08835006     0.19500
C159        C  0.18750980  0.39666587  0.09018295    -0.55300
C160        C  0.17267799  0.35563858  0.07090679     0.08600
C161        C  0.11724611  0.34184197  0.12596600    -0.54900
C162        C  0.10296613  0.30019887  0.10748309     0.09200
H163        H  0.23471441  0.36432530  0.14745079     0.13700
H164        H  0.13873832  0.27025334  0.07321208    -0.00500
H165        H  0.20792380  0.43573818  0.08159144     0.14000
H166        H  0.08949524  0.34606226  0.14047193     0.13800
Fe167      Fe  0.74977797  0.37654778  0.24728408     1.65800
Fe168      Fe  0.63401463  0.37366978  0.24941946     1.73200
Fe169      Fe  0.63803925  0.26315214  0.25179590     1.54400
O170        O  0.67650337  0.25705482  0.21365033    -0.82500
O171        O  0.57489116  0.32113668  0.27801210    -0.80800
O172        O  0.75691061  0.32272047  0.22012795    -0.85000
O173        O  0.75722244  0.34334709  0.28688138    -0.79900
O174        O  0.57825414  0.25473939  0.22281588    -0.81700
O175        O  0.67291267  0.41607349  0.28730282    -0.84400
C176        C  0.73408340  0.29629111  0.29458612     0.96300
C177        C  0.72488346  0.28090486  0.20712307     1.03800
O178        O  0.67391338  0.33757548  0.24953915    -1.13400
O179        O  0.68677029  0.43216228  0.22074173    -0.75800
O180        O  0.74625881  0.41137882  0.20754619    -0.79300
O181        O  0.69303149  0.26250495  0.28124059    -0.80000
C182        C  0.72381779  0.43744903  0.20330125     0.95200
O183        O  0.75421204  0.43617973  0.27422525    -0.78000
O184        O  0.59234209  0.33323690  0.21164782    -0.83200
C185        C  0.56930158  0.28381290  0.29435201     0.97900
C186        C  0.56811010  0.28489559  0.20758155     1.03800
O187        O  0.59729750  0.26323001  0.29019768    -0.78800
C188        C  0.72200926  0.44303369  0.29039867     1.02100
C189        C  0.78749019  0.20693172  0.17423067    -0.02700
C190        C  0.77740982  0.20549588  0.14218902     0.07000
C191        C  0.74315627  0.22389121  0.13314902    -0.02800
C192        C  0.73069426  0.25289232  0.15367778    -0.02800
C193        C  0.74478640  0.25739841  0.18459180     0.07100
C194        C  0.77153686  0.23276895  0.19493280    -0.03000
Br195      Br  0.78243659  0.23083498  0.23829986    -0.01600
Br196      Br  0.81607003  0.16746614  0.19187172    -0.01600
Br197      Br  0.69274588  0.28579622  0.13970978    -0.01600
Br198      Br  0.69868708  0.19759185  0.09782398    -0.01600
C199        C  0.96430640  0.20309981  0.13358634    -0.02700
C200        C  0.93636913  0.19346661  0.10598653     0.07000
C201        C  0.96554696  0.20840362  0.07834461    -0.02800
C202        C  0.02007220  0.24134270  0.07861123    -0.02800
C203        C  0.04716476  0.25731850  0.10645459     0.07100
C204        C  0.01918442  0.23453151  0.13383154    -0.03000
Br205      Br  0.05582077  0.24449570  0.17176248    -0.01600
Br206      Br  0.92834051  0.16983329  0.17087843    -0.01600
Br207      Br  0.05554093  0.26679277  0.04027784    -0.01600
Br208      Br  0.93316307  0.18399932  0.03950951    -0.01600
C209        C  0.74389420  0.22365217  0.36324529    -0.02700
C210        C  0.79437333  0.22858501  0.35859310     0.07000
C211        C  0.82323903  0.25721390  0.33218756    -0.02800
C212        C  0.80758781  0.28721647  0.31551459    -0.02800
C213        C  0.75671095  0.27902186  0.31899462     0.07100
C214        C  0.72524564  0.24780972  0.34320268    -0.03000
Br215      Br  0.65678780  0.24029977  0.34960530    -0.01600
Br216      Br  0.69555052  0.18010674  0.39458085    -0.01600
Br217      Br  0.85572375  0.33753143  0.28640213    -0.01600
Br218      Br  0.87290609  0.24420420  0.31071442    -0.01600
C219        C  0.79147361  0.12067347  0.48161468    -0.02700
C220        C  0.81431599  0.16826275  0.46611133     0.07000
C221        C  0.83811016  0.21378787  0.48392172    -0.02800
C222        C  0.83813396  0.21131102  0.01639671    -0.02800
C223        C  0.81530896  0.16327511  0.03189183     0.07100
C224        C  0.79404895  0.11819661  0.01377472    -0.03000
Br225      Br  0.77021259  0.05163123  0.03144299    -0.01600
Br226      Br  0.75350156  0.05736736  0.45936348    -0.01600
Br227      Br  0.87656694  0.27450143  0.03914427    -0.01600
Br228      Br  0.87612981  0.28017208  0.46413878    -0.01600
C229        C  0.77550299  0.97393127  0.38108170    -0.02700
C230        C  0.72009404  0.94429077  0.38196912     0.07000
C231        C  0.69175329  0.97115295  0.38452143    -0.02800
C232        C  0.71800740  0.02526498  0.38622680    -0.02800
C233        C  0.77315937  0.05460375  0.38454724     0.07100
C234        C  0.80153357  0.02834200  0.38169421    -0.03000
Br235      Br  0.87656544  0.06669682  0.37718518    -0.01600
Br236      Br  0.81780562  0.94189591  0.37854215    -0.01600
Br237      Br  0.67706257  0.05804666  0.39456085    -0.01600
Br238      Br  0.61621137  0.93560976  0.38796551    -0.01600
C239        C  0.19396228  0.32697836  0.48865021    -0.02700
C240        C  0.17486837  0.35313880  0.47074091     0.07000
C241        C  0.15395677  0.38055541  0.48654195    -0.02800
C242        C  0.15335843  0.38198695  0.01904812    -0.02800
C243        C  0.17772124  0.36008902  0.03637852     0.07100
C244        C  0.20075210  0.33570738  0.02027639    -0.03000
Br245      Br  0.24818249  0.31991765  0.04008601    -0.01600
Br246      Br  0.20416577  0.27277317  0.47284595    -0.01600
Br247      Br  0.11362976  0.40868029  0.03933216    -0.01600
Br248      Br  0.11813007  0.40933811  0.46431737    -0.01600
C249        C  0.97175008  0.21414709  0.42304557    -0.02700
C250        C  0.94458767  0.20302194  0.39530191     0.07000
C251        C  0.97374001  0.21358604  0.36777368    -0.02800
C252        C  0.02868775  0.24444208  0.36772651    -0.02800
C253        C  0.05590619  0.26201751  0.39568970     0.07100
C254        C  0.02678533  0.24285490  0.42329953    -0.03000
Br255      Br  0.05961795  0.25708539  0.46240912    -0.01600
Br256      Br  0.93471538  0.19122702  0.46121567    -0.01600
Br257      Br  0.06543571  0.26180627  0.32883448    -0.01600
Br258      Br  0.93854963  0.18183394  0.33031665    -0.01600
C259        C  0.78929140  0.01197957  0.11135321    -0.02700
C260        C  0.76337427  0.04000045  0.10599994     0.07000
C261        C  0.71114419  0.01378987  0.09606519    -0.02800
C262        C  0.68573131  0.96056438  0.09135058    -0.02800
C263        C  0.70958204  0.93149571  0.09929667     0.07100
C264        C  0.76266460  0.95796528  0.10779842    -0.03000
Br265      Br  0.80036370  0.92171486  0.11315608    -0.01600
Br266      Br  0.86051396  0.04724330  0.12512035    -0.01600
Br267      Br  0.62152782  0.92942790  0.06917940    -0.01600
Br268      Br  0.67542041  0.05101842  0.08528631    -0.01600
C269        C  0.61491103  0.83242141  0.47474705    -0.02700
C270        C  0.65261905  0.82555978  0.45841231     0.07000
C271        C  0.68834432  0.81794309  0.47596748    -0.02800
C272        C  0.68320488  0.81262694  0.00833978    -0.02800
C273        C  0.64177217  0.81437838  0.02460648     0.07100
C274        C  0.60718826  0.82384468  0.00674864    -0.03000
Br275      Br  0.54802768  0.82643610  0.02431358    -0.01600
Br276      Br  0.57906971  0.86255714  0.45433154    -0.01600
Br277      Br  0.73360299  0.80003438  0.02847532    -0.01600
Br278      Br  0.74688093  0.81621804  0.45709277    -0.01600
C279        C  0.79294255  0.49722705  0.16515091    -0.02700
C280        C  0.74197158  0.47627052  0.17790529     0.07000
C281        C  0.70800742  0.49210707  0.16532062    -0.02800
C282        C  0.72702044  0.53276919  0.14385573    -0.02800
C283        C  0.78088876  0.56048548  0.13601485     0.07100
C284        C  0.81049014  0.53641861  0.14296351    -0.03000
Br285      Br  0.86884923  0.54707567  0.11770136    -0.01600
Br286      Br  0.84126617  0.47455975  0.17745057    -0.01600
Br287      Br  0.67684005  0.54324171  0.12153038    -0.01600
Br288      Br  0.63419886  0.45712425  0.17555492    -0.01600
C289        C  0.72773323  0.70006665  0.08815993    -0.02700
C290        C  0.77032391  0.71795447  0.10848828     0.07000
C291        C  0.77574301  0.75415217  0.13098019    -0.02800
C292        C  0.74496530  0.77820165  0.12982137    -0.02800
C293        C  0.70871838  0.76642265  0.10608334     0.07100
C294        C  0.69681726  0.72371340  0.08729880    -0.03000
Br295      Br  0.63466816  0.69370669  0.06248873    -0.01600
Br296      Br  0.70767260  0.64013609  0.06305258    -0.01600
Br297      Br  0.74604000  0.82037917  0.16350407    -0.01600
Br298      Br  0.81960780  0.76523619  0.16580375    -0.01600
C299        C  0.02390316  0.81097775  0.11810830    -0.02700
C300        C  0.05465230  0.78738253  0.11425105     0.07000
C301        C  0.03033982  0.73511689  0.10568738    -0.02800
C302        C  0.97664126  0.70798088  0.10020315    -0.02800
C303        C  0.94460863  0.72891954  0.10777041     0.07100
C304        C  0.96892889  0.78177760  0.11517658    -0.03000
Br305      Br  0.92871888  0.81581314  0.11937713    -0.01600
Br306      Br  0.05708446  0.88290237  0.12824007    -0.01600
Br307      Br  0.95004210  0.64790060  0.07513116    -0.01600
Br308      Br  0.07047033  0.70116843  0.09718275    -0.01600
C309        C  0.22014883  0.83330838  0.49120724    -0.02700
C310        C  0.17715767  0.82728963  0.47337633     0.07000
C311        C  0.13247925  0.82172710  0.48995542    -0.02800
C312        C  0.12847737  0.81434853  0.02200710    -0.02800
C313        C  0.17240703  0.82409084  0.03950961     0.07100
C314        C  0.21920014  0.83712084  0.02343087    -0.03000
Br315      Br  0.28518529  0.87118449  0.04424465    -0.01600
Br316      Br  0.28381707  0.84027256  0.47348828    -0.01600
Br317      Br  0.06073152  0.78902767  0.04065153    -0.01600
Br318      Br  0.07541752  0.82660284  0.47188800    -0.01600
C319        C  0.50196186  0.21022816  0.32600734    -0.02700
C320        C  0.52821924  0.26306757  0.31872692     0.07000
C321        C  0.51645695  0.29600363  0.33602036    -0.02800
C322        C  0.47443305  0.27537398  0.35729971    -0.02800
C323        C  0.44479215  0.22139306  0.36258336     0.07100
C324        C  0.46538918  0.19132827  0.35011407    -0.03000
Br325      Br  0.45993203  0.13280273  0.37156060    -0.01600
Br326      Br  0.51314308  0.16130830  0.30283855    -0.01600
Br327      Br  0.46222791  0.32307439  0.38072224    -0.01600
Br328      Br  0.55968072  0.36985786  0.33221495    -0.01600
C329        C  0.24161567  0.21520524  0.37228327    -0.02700
C330        C  0.28336749  0.22817034  0.39241516     0.07000
C331        C  0.30192113  0.27370426  0.40989718    -0.02800
C332        C  0.27598219  0.30243103  0.40932431    -0.02800
C333        C  0.22952900  0.28479460  0.39265041     0.07100
C334        C  0.21276653  0.24118863  0.37388763    -0.03000
Br335      Br  0.15159916  0.21807461  0.34933935    -0.01600
Br336      Br  0.22982507  0.16869951  0.33892099    -0.01600
Br337      Br  0.30503076  0.36660084  0.43134314    -0.01600
Br338      Br  0.36461246  0.29937766  0.43372824    -0.01600
C339        C  0.20150399  0.97664310  0.39443751    -0.02700
C340        C  0.22880265  0.95066832  0.40194588     0.07000
C341        C  0.28009089  0.97973879  0.41292443    -0.02800
C342        C  0.30596922  0.03359184  0.41244070    -0.02800
C343        C  0.28140985  0.06005700  0.40100559     0.07100
C344        C  0.22769417  0.03111523  0.39409626    -0.03000
Br345      Br  0.18911280  0.06512632  0.38489337    -0.01600
Br346      Br  0.12850536  0.93830988  0.38455865    -0.01600
Br347      Br  0.37384758  0.07027401  0.43022536    -0.01600
Br348      Br  0.31454114  0.94642150  0.43108464    -0.01600
C349        C  0.76993436  0.53620923  0.30284435    -0.02700
C350        C  0.74315583  0.48519318  0.31301537     0.07000
C351        C  0.74047907  0.47448248  0.34437908    -0.02800
C352        C  0.76573693  0.51475019  0.36580268    -0.02800
C353        C  0.78920838  0.56750997  0.35635693     0.07100
C354        C  0.79247437  0.57694846  0.32397195    -0.03000
Br355      Br  0.82965722  0.64538170  0.30656832    -0.01600
Br356      Br  0.77478339  0.54995071  0.25925565    -0.01600
Br357      Br  0.77578589  0.49297841  0.40522566    -0.01600
Br358      Br  0.70445789  0.40325689  0.35747280    -0.01600
C359        C  0.83191006  0.61543506  0.48264508    -0.02700
C360        C  0.82516369  0.65206473  0.46570885     0.07000
C361        C  0.82064286  0.69019918  0.48248827    -0.02800
C362        C  0.82226368  0.69161906  0.01490320    -0.02800
C363        C  0.82580703  0.65302330  0.03207706     0.07100
C364        C  0.83127313  0.61519594  0.01507235    -0.03000
Br365      Br  0.84267465  0.56369105  0.03470354    -0.01600
Br366      Br  0.85056953  0.56926986  0.46216907    -0.01600
Br367      Br  0.81841592  0.74815445  0.03371439    -0.01600
Br368      Br  0.81013338  0.74124870  0.46217185    -0.01600
C369        C  0.98259795  0.75538193  0.36632682    -0.02700
C370        C  0.95370176  0.72579073  0.39208040     0.07000
C371        C  0.98190177  0.72402606  0.41746764    -0.02800
C372        C  0.03628216  0.74673193  0.41591170    -0.02800
C373        C  0.06470512  0.78361679  0.39325443     0.07100
C374        C  0.03758317  0.78672226  0.36773532    -0.03000
Br375      Br  0.07625518  0.82978860  0.33343255    -0.01600
Br376      Br  0.94862721  0.75113857  0.32837831    -0.01600
Br377      Br  0.06931925  0.71883710  0.44144755    -0.01600
Br378      Br  0.94913466  0.69259416  0.45537501    -0.01600
C379        C  0.73620710  0.70568377  0.40199504    -0.02700
C380        C  0.78644559  0.72685360  0.38823969     0.07000
C381        C  0.80551126  0.77251346  0.37104755    -0.02800
C382        C  0.77474073  0.79607322  0.36734965    -0.02800
C383        C  0.72855483  0.77931810  0.38473688     0.07100
C384        C  0.70836997  0.73252324  0.40115406    -0.03000
Br385      Br  0.64082616  0.70292817  0.42135930    -0.01600
Br386      Br  0.70428837  0.63924869  0.42194525    -0.01600
Br387      Br  0.78909208  0.84186916  0.33323696    -0.01600
Br388      Br  0.87233339  0.80161735  0.35098286    -0.01600
C389        C  0.53012187  0.28262835  0.15587494    -0.02700
C390        C  0.52404165  0.26260439  0.18566192     0.07000
C391        C  0.47375224  0.22618347  0.19606671    -0.02800
C392        C  0.43059092  0.20767853  0.17635651    -0.02800
C393        C  0.43683476  0.22394093  0.14517554     0.07100
C394        C  0.48645893  0.26671732  0.13677757    -0.03000
Br395      Br  0.49447455  0.31525168  0.10518246    -0.01600
Br396      Br  0.59878015  0.33255420  0.14097426    -0.01600
Br397      Br  0.36252915  0.16731773  0.19493130    -0.01600
Br398      Br  0.46283468  0.20496596  0.23858309    -0.01600
C399        C  0.26019326  0.03661240  0.07892475    -0.02700
C400        C  0.27083945  0.06481155  0.10648566     0.07000
C401        C  0.24589543  0.03778860  0.13362347    -0.02800
C402        C  0.21830782  0.98363417  0.13417567    -0.02800
C403        C  0.21406625  0.95543619  0.10742148     0.07100
C404        C  0.23149494  0.98240725  0.07935038    -0.03000
Br405      Br  0.21759158  0.94682536  0.04092609    -0.01600
Br406      Br  0.28527890  0.07037062  0.04006432    -0.01600
Br407      Br  0.18391015  0.94805884  0.17148320    -0.01600
Br408      Br  0.24561472  0.07440360  0.16971951    -0.01600
C409        C  0.39483617  0.18048256  0.01916708    -0.02700
C410        C  0.36042167  0.19221220  0.03558574     0.07000
C411        C  0.32566978  0.20151033  0.01856589    -0.02800
C412        C  0.32126052  0.19420738  0.48658478    -0.02800
C413        C  0.35880810  0.18723189  0.46950295     0.07100
C414        C  0.39728390  0.18260100  0.48674138    -0.03000
Br415      Br  0.45422358  0.17739425  0.46798477    -0.01600
Br416      Br  0.43388250  0.15374330  0.04022601    -0.01600
Br417      Br  0.26134761  0.19357755  0.46875612    -0.01600
Br418      Br  0.28512738  0.22764632  0.03821965    -0.01600
C419        C  0.22343347  0.20273050  0.11572850    -0.02700
C420        C  0.27827597  0.23004603  0.11225565     0.07000
C421        C  0.30408746  0.28399007  0.10827709    -0.02800
C422        C  0.27622043  0.31058604  0.10999733    -0.02800
C423        C  0.22095593  0.28315568  0.11260656     0.07100
C424        C  0.19481700  0.22903419  0.11535045    -0.03000
Br425      Br  0.11999222  0.19061429  0.12043990    -0.01600
Br426      Br  0.18723169  0.12942507  0.12172304    -0.01600
Br427      Br  0.31520962  0.38491737  0.10577433    -0.01600
Br428      Br  0.37701004  0.32183543  0.09620957    -0.01600
C429        C  0.20642775  0.79391449  0.18205222    -0.02700
C430        C  0.22133955  0.80118190  0.15044450     0.07000
C431        C  0.25895320  0.78727681  0.14112779    -0.02800
C432        C  0.27057763  0.75624828  0.16000886    -0.02800
C433        C  0.24923580  0.74291044  0.18970161     0.07100
C434        C  0.21863093  0.76337225  0.20102702    -0.03000
Br435      Br  0.19482003  0.75068740  0.24317174    -0.01600
Br436      Br  0.17543627  0.83071957  0.20127312    -0.01600
Br437      Br  0.31789610  0.73349253  0.14570067    -0.01600
Br438      Br  0.30671484  0.82214473  0.10789082    -0.01600
C439        C  0.52324861  0.79933476  0.14315603    -0.02700
C440        C  0.54190974  0.76878344  0.12915415     0.07000
C441        C  0.51134406  0.71487341  0.13395351    -0.02800
C442        C  0.47066972  0.69449131  0.15635585    -0.02800
C443        C  0.46145529  0.72780409  0.17528162     0.07100
C444        C  0.48902096  0.78093471  0.16838295    -0.03000
Br445      Br  0.48480494  0.83166718  0.19394485    -0.01600
Br446      Br  0.52811020  0.85841285  0.12270728    -0.01600
Br447      Br  0.42677411  0.62082815  0.15981458    -0.01600
Br448      Br  0.52137355  0.66793870  0.10832007    -0.01600
C449        C  0.29658238  0.79731346  0.32965254    -0.02700
C450        C  0.26794493  0.74416924  0.32323063     0.07000
C451        C  0.22470518  0.71234449  0.34242979    -0.02800
C452        C  0.20674193  0.73431133  0.36473932    -0.02800
C453        C  0.23256912  0.78844487  0.36877879     0.07100
C454        C  0.28214997  0.81755547  0.35448873    -0.03000
Br455      Br  0.33782721  0.87669418  0.37425893    -0.01600
Br456      Br  0.35354658  0.84515375  0.30368392    -0.01600
Br457      Br  0.14850637  0.68881392  0.39076355    -0.01600
Br458      Br  0.19004120  0.63823367  0.33927317    -0.01600
C459        C  0.47009827  0.73371296  0.34033653    -0.02700
C460        C  0.47842823  0.72697452  0.30947531     0.07000
C461        C  0.52939360  0.74559927  0.29833254    -0.02800
C462        C  0.57239979  0.77024645  0.31810986    -0.02800
C463        C  0.56501801  0.77560091  0.35019008     0.07100
C464        C  0.51275403  0.76001904  0.36028178    -0.03000
Br465      Br  0.49633114  0.78324045  0.39774598    -0.01600
Br466      Br  0.39902228  0.70873719  0.35454421    -0.01600
Br467      Br  0.64113225  0.80064098  0.29902494    -0.01600
Br468      Br  0.53976811  0.73794105  0.25520849    -0.01600
C469        C  0.19893569  0.41962405  0.17934747    -0.02700
C470        C  0.18983563  0.42609289  0.14803440     0.07000
C471        C  0.19400235  0.47380810  0.13979678    -0.02800
C472        C  0.21946663  0.51673161  0.15919153    -0.02800
C473        C  0.23612238  0.51134482  0.18817886     0.07100
C474        C  0.22368019  0.46242563  0.19877195    -0.03000
Br475      Br  0.23958913  0.45408960  0.24051271    -0.01600
Br476      Br  0.17308180  0.35257743  0.19782122    -0.01600
Br477      Br  0.23148712  0.58320779  0.14625518    -0.01600
Br478      Br  0.15431873  0.47884667  0.10670829    -0.01600
C479        C  0.26428941  0.47355398  0.36190232    -0.02700
C480        C  0.20979532  0.43933079  0.36573686     0.07000
C481        C  0.17601070  0.45420580  0.35190298    -0.02800
C482        C  0.19404482  0.49010630  0.32769205    -0.02800
C483        C  0.24809835  0.52035427  0.32124128     0.07100
C484        C  0.28321618  0.51359382  0.33988837    -0.03000
Br485      Br  0.35768201  0.56000698  0.33638912    -0.01600
Br486      Br  0.31387487  0.47012401  0.38879437    -0.01600
Br487      Br  0.14267207  0.49348236  0.30230664    -0.01600
Br488      Br  0.11137224  0.44055907  0.37170823    -0.01600
Fe489      Fe  0.35756659  0.61958776  0.74804942     1.65800
Fe490      Fe  0.24639935  0.62858189  0.75324830     1.73200
Fe491      Fe  0.36480681  0.73587806  0.74913190     1.54400
O492        O  0.42520953  0.73906274  0.77460576    -0.82500
O493        O  0.24110521  0.66986285  0.71655730    -0.80800
O494        O  0.40784482  0.65904912  0.78326130    -0.85000
O495        O  0.41322447  0.66754716  0.71556355    -0.79900
O496        O  0.33152019  0.74236214  0.78955959    -0.81700
O497        O  0.23378140  0.56980759  0.72336115    -0.84400
C498        C  0.42232476  0.70807623  0.70116115     0.96300
C499        C  0.43445172  0.70695527  0.78790220     1.03800
O500        O  0.32277251  0.66110073  0.75006364    -1.13400
O501        O  0.24424525  0.58458619  0.79055678    -0.75800
O502        O  0.30726386  0.56639776  0.78024924    -0.79300
O503        O  0.40000563  0.73342076  0.70864595    -0.80000
C504        C  0.26772845  0.55958176  0.79595057     0.95200
O505        O  0.31067696  0.57514986  0.71299547    -0.78000
O506        O  0.24841619  0.68304261  0.78347914    -0.83200
C507        C  0.26836235  0.71771020  0.71101760     0.97900
C508        C  0.28369135  0.72190900  0.79733902     1.03800
O509        O  0.31201530  0.74607858  0.72354537    -0.78800
C510        C  0.26193926  0.55543271  0.70898342     1.02100
C511        C  0.38902143  0.20024325  0.62336447     0.85600
C512        C  0.35385287  0.14112231  0.62502347    -0.54600
C513        C  0.30963485  0.12143870  0.60759419     0.08500
C514        C  0.30568511  0.16303573  0.58898705     0.19500
C515        C  0.40045045  0.20945973  0.58855246    -0.55300
C516        C  0.35738482  0.19030648  0.57025475     0.08600
C517        C  0.35250949  0.22120873  0.63075215    -0.54900
C518        C  0.30982165  0.20351959  0.61260620     0.09200
H519        H  0.36340048  0.11670177  0.63856042     0.13700
H520        H  0.26997341  0.14673484  0.57494797    -0.00500
H521        H  0.43915705  0.22683207  0.57878467     0.14000
H522        H  0.36164758  0.25065616  0.64794814     0.13800
C523        C  0.81248494  0.61474212  0.87852103     0.85600
C524        C  0.87238030  0.64688817  0.87517762    -0.54600
C525        C  0.89536427  0.69172941  0.89120663     0.08500
C526        C  0.85609209  0.70052962  0.91019711     0.19500
C527        C  0.80220577  0.60774979  0.91368153    -0.55300
C528        C  0.82679998  0.65204098  0.93078124     0.08600
C529        C  0.79206230  0.65150840  0.87121159    -0.54900
C530        C  0.81375767  0.69604962  0.88743104     0.09200
H531        H  0.89497148  0.63458680  0.86134108     0.13700
H532        H  0.87651429  0.73746880  0.92253542    -0.00500
H533        H  0.77359900  0.57252625  0.92459212     0.14000
H534        H  0.75919575  0.64087612  0.85614901     0.13800
C535        C  0.39303704  0.19689453  0.88147838     0.85600
C536        C  0.35676989  0.21792561  0.87358580    -0.54600
C537        C  0.31316979  0.19975742  0.89158357     0.08500
C538        C  0.30758095  0.15769033  0.91492313     0.19500
C539        C  0.40198362  0.20623207  0.91622617    -0.55300
C540        C  0.35777116  0.18442723  0.93450384     0.08600
C541        C  0.35681205  0.13833556  0.87785882    -0.54900
C542        C  0.31323766  0.11729691  0.89606409     0.09200
H543        H  0.36620712  0.24740753  0.85639083     0.13700
H544        H  0.27039803  0.13828031  0.92768716    -0.00500
H545        H  0.44071650  0.23100265  0.92499668     0.14000
H546        H  0.36392715  0.11455252  0.86212211     0.13800
C547        C  0.20578053  0.81405496  0.88649777     0.85600
C548        C  0.22899693  0.87251147  0.88192907    -0.54600
C549        C  0.20515541  0.89359462  0.89870756     0.08500
C550        C  0.15784458  0.85372877  0.91721908     0.19500
C551        C  0.20325793  0.80568993  0.92152248    -0.55300
C552        C  0.18000102  0.82799618  0.93837051     0.08600
C553        C  0.14890932  0.79277708  0.87731178    -0.54900
C554        C  0.12277596  0.81143178  0.89381888     0.09200
H555        H  0.26053997  0.89587237  0.86655335     0.13700
H556        H  0.13934843  0.87316682  0.92872047    -0.00500
H557        H  0.21680251  0.78158776  0.93158067     0.14000
H558        H  0.12953763  0.76268306  0.86042094     0.13800
C559        C  0.19581455  0.82187238  0.62763886     0.85600
C560        C  0.13764280  0.80033633  0.63483002    -0.54600
C561        C  0.11260684  0.81729841  0.61639704     0.08500
C562        C  0.14892815  0.85645230  0.59198904     0.19500
C563        C  0.19510003  0.80832509  0.59311802    -0.55300
C564        C  0.17200731  0.82763851  0.57412797     0.08600
C565        C  0.21966683  0.88045690  0.62814807    -0.54900
C566        C  0.19545093  0.89897667  0.60969540     0.09200
H567        H  0.11625799  0.76939281  0.65116858     0.13700
H568        H  0.12914694  0.87179302  0.57755342    -0.00500
H569        H  0.20983243  0.78418543  0.58426912     0.14000
H570        H  0.25322556  0.90533481  0.64196501     0.13800
C571        C  0.80556000  0.61281842  0.61896447     0.85600
C572        C  0.78199481  0.64688537  0.62705580    -0.54600
C573        C  0.80123247  0.69082840  0.61022659     0.08500
C574        C  0.84725051  0.69938436  0.58840887     0.19500
C575        C  0.80033304  0.60682792  0.58393471    -0.55300
C576        C  0.82406843  0.65171600  0.56714000     0.08600
C577        C  0.86414572  0.64901231  0.62493244    -0.54900
C578        C  0.88645186  0.69378139  0.60859167     0.09200
H579        H  0.75057730  0.63628297  0.64361499     0.13700
H580        H  0.86772999  0.73684112  0.57694156    -0.00500
H581        H  0.77681605  0.56935995  0.57373266     0.11400
H582        H  0.88671813  0.64025827  0.64076328     0.13800
C583        C  0.59503766  0.79347442  0.61136072     0.85600
C584        C  0.63098823  0.85144455  0.61704817    -0.54600
C585        C  0.67653299  0.87399017  0.60074073     0.08500
C586        C  0.68457579  0.83539014  0.58158467     0.19500
C587        C  0.59050729  0.78733236  0.57606868    -0.55300
C588        C  0.63714808  0.81066993  0.55974477     0.08600
C589        C  0.63000203  0.77139312  0.62015777    -0.54900
C590        C  0.67607808  0.79162020  0.60433987     0.09200
H591        H  0.62266307  0.87377753  0.63325382     0.13700
H592        H  0.72304075  0.85526939  0.57013073    -0.00500
H593        H  0.55292288  0.76443204  0.56544356     0.14000
H594        H  0.61853026  0.74058481  0.63671327     0.13800
C595        C  0.18888804  0.38818993  0.88404388     0.85600
C596        C  0.13095219  0.34748463  0.87917573    -0.54600
C597        C  0.11279626  0.30334482  0.89592975     0.08500
C598        C  0.15570885  0.30328572  0.91577767     0.19500
C599        C  0.19417117  0.39612413  0.91891000    -0.55300
C600        C  0.17614711  0.35214305  0.93604455     0.08600
C601        C  0.21733002  0.35805602  0.87643876    -0.54900
C602        C  0.20112637  0.31444807  0.89338465     0.09200
H603        H  0.10599756  0.35194250  0.86313213     0.13700
H604        H  0.14136686  0.26655665  0.92803459    -0.00500
H605        H  0.21078983  0.43395295  0.92918387     0.14000
H606        H  0.24892010  0.37091152  0.85972813     0.13800
C607        C  0.81364858  0.19884380  0.87913416     0.85600
C608        C  0.78740587  0.14195056  0.87009747    -0.54600
C609        C  0.80053697  0.11233216  0.88741841     0.08500
C610        C  0.84172797  0.14356522  0.91197102     0.19500
C611        C  0.80345420  0.19908200  0.91400852    -0.55300
C612        C  0.81760873  0.17015593  0.93146351     0.08600
C613        C  0.87271239  0.21767635  0.87840905    -0.54900
C614        C  0.88780186  0.18818839  0.89434211     0.09200
H615        H  0.75927241  0.12607142  0.85172817     0.13700
H616        H  0.85308981  0.11973291  0.92565288    -0.00500
H617        H  0.78856127  0.22220781  0.92430053     0.14000
H618        H  0.90157913  0.25400267  0.86848055     0.13800
C619        C  0.61389931  0.80167032  0.87127240     0.85600
C620        C  0.65080297  0.78035252  0.86646343    -0.54600
C621        C  0.69642335  0.80503054  0.88199499     0.08500
C622        C  0.70099505  0.85046130  0.90217163     0.19500
C623        C  0.60715142  0.79823950  0.90686494    -0.55300
C624        C  0.65237411  0.82490865  0.92339719     0.08600
C625        C  0.64708901  0.85910121  0.86390198    -0.54900
C626        C  0.69120536  0.88592761  0.88076976     0.09200
H627        H  0.63984456  0.74548341  0.85354538     0.13700
H628        H  0.73775722  0.87219753  0.91467413    -0.00500
H629        H  0.57127835  0.77181271  0.91864427     0.14000
H630        H  0.63508828  0.87746381  0.84697433     0.13800
C631        C  0.79979177  0.18028551  0.61980466     0.85600
C632        C  0.85861645  0.19979083  0.62386192    -0.54600
C633        C  0.87851143  0.17505292  0.60659558     0.08500
C634        C  0.83666027  0.13267367  0.58599650     0.19500
C635        C  0.79651248  0.18627285  0.58468837    -0.55300
C636        C  0.81463172  0.16074937  0.56667774     0.08600
C637        C  0.77299073  0.12231295  0.62522879    -0.54900
C638        C  0.79145845  0.09714300  0.60774111     0.09200
H639        H  0.88302590  0.23205417  0.63851555     0.13700
H640        H  0.85151191  0.11138021  0.57240489    -0.00500
H641        H  0.78511476  0.21166848  0.57433876     0.14000
H642        H  0.74003609  0.10223521  0.64088627     0.13800
C643        C  0.17529792  0.38223563  0.62464794     0.85600
C644        C  0.20425974  0.35254851  0.63053656    -0.54600
C645        C  0.19134202  0.31167913  0.61195945     0.08500
C646        C  0.14933593  0.30367265  0.58834994     0.19500
C647        C  0.18751022  0.39666563  0.59018292    -0.55300
C648        C  0.17267830  0.35563837  0.57090673     0.08600
C649        C  0.11724637  0.34184179  0.62596591    -0.54900
C650        C  0.10296631  0.30019870  0.60748295     0.09200
H651        H  0.23471452  0.36432471  0.64745081     0.13700
H652        H  0.13873840  0.27025310  0.57321193    -0.00500
H653        H  0.20792439  0.43573796  0.58159143     0.14000
H654        H  0.08949553  0.34606212  0.64047184     0.13800
Fe655      Fe  0.74977780  0.37654761  0.74728407     1.65800
Fe656      Fe  0.63401443  0.37366953  0.74941951     1.73200
Fe657      Fe  0.63803914  0.26315190  0.75179568     1.54400
O658        O  0.67650334  0.25705481  0.71365007    -0.82500
O659        O  0.57489092  0.32113625  0.77801203    -0.80800
O660        O  0.75691052  0.32272051  0.72012779    -0.85000
O661        O  0.75722224  0.34334667  0.78688126    -0.79900
O662        O  0.57825408  0.25473929  0.72281569    -0.81700
O663        O  0.67291238  0.41607304  0.78730296    -0.84400
C664        C  0.73408325  0.29629065  0.79458588     0.96300
C665        C  0.72488345  0.28090493  0.70712285     1.03800
O666        O  0.67391322  0.33757526  0.74953910    -1.13400
O667        O  0.68677012  0.43216224  0.72074193    -0.75800
O668        O  0.74625864  0.41137885  0.70754628    -0.79300
O669        O  0.69303136  0.26250455  0.78124031    -0.80000
C670        C  0.72381761  0.43744906  0.70330143     0.95200
O671        O  0.75421179  0.43617941  0.77422542    -0.78000
O672        O  0.59234197  0.33323683  0.71164779    -0.83200
C673        C  0.56930138  0.28381243  0.79435188     0.97900
C674        C  0.56811003  0.28489553  0.70758143     1.03800
O675        O  0.59729729  0.26322955  0.79019749    -0.78800
C676        C  0.72200896  0.44303327  0.79039886     1.02100
C677        C  0.78749016  0.20693184  0.67423036    -0.02700
C678        C  0.77741008  0.20549631  0.64218868     0.07000
C679        C  0.74315695  0.22389216  0.63314863    -0.02800
C680        C  0.73069503  0.25289327  0.65367744    -0.02800
C681        C  0.74478651  0.25739863  0.68459156     0.07100
C682        C  0.77153652  0.23276872  0.69493256    -0.03000
Br683      Br  0.78243522  0.23083372  0.73829967    -0.01600
Br684      Br  0.81607035  0.16746653  0.69187135    -0.01600
Br685      Br  0.69274769  0.28579823  0.63970941    -0.01600
Br686      Br  0.69868807  0.19759362  0.59782342    -0.01600
C687        C  0.96430646  0.20309977  0.63358611    -0.02700
C688        C  0.93636923  0.19346664  0.60598628     0.07000
C689        C  0.96554710  0.20840364  0.57834439    -0.02800
C690        C  0.02007235  0.24134273  0.57861103    -0.02800
C691        C  0.04716489  0.25731841  0.60645441     0.07100
C692        C  0.01918450  0.23453134  0.63383133    -0.03000
Br693      Br  0.05582084  0.24449524  0.67176225    -0.01600
Br694      Br  0.92834050  0.16983330  0.67087818    -0.01600
Br695      Br  0.05554109  0.26679300  0.54027768    -0.01600
Br696      Br  0.93316323  0.18399923  0.53950929    -0.01600
C697        C  0.74389442  0.22365214  0.86324519    -0.02700
C698        C  0.79437372  0.22858531  0.85859314     0.07000
C699        C  0.82323934  0.25721405  0.83218752    -0.02800
C700        C  0.80758778  0.28721614  0.81551431    -0.02800
C701        C  0.75671082  0.27902132  0.81899431     0.07100
C702        C  0.72524558  0.24780919  0.84320239    -0.03000
Br703      Br  0.65678735  0.24029846  0.84960474    -0.01600
Br704      Br  0.69555093  0.18010700  0.89458090    -0.01600
Br705      Br  0.85572330  0.33753063  0.78640148    -0.01600
Br706      Br  0.87290707  0.24420497  0.81071468    -0.01600
C707        C  0.79147394  0.12067396  0.98161487    -0.02700
C708        C  0.81431630  0.16826329  0.96611157     0.07000
C709        C  0.83811036  0.21378833  0.98392204    -0.02800
C710        C  0.83813390  0.21131069  0.51639639    -0.02800
C711        C  0.81530885  0.16327485  0.53189157     0.07100
C712        C  0.79404861  0.11819625  0.51377454    -0.03000
Br713      Br  0.77021174  0.05163090  0.53144296    -0.01600
Br714      Br  0.75350180  0.05736792  0.95936362    -0.01600
Br715      Br  0.87656710  0.27450118  0.53914384    -0.01600
Br716      Br  0.87612999  0.28017261  0.96413918    -0.01600
C717        C  0.77550347  0.97393177  0.88108185    -0.02700
C718        C  0.72009452  0.94429129  0.88196921     0.07000
C719        C  0.69175378  0.97115345  0.88452153    -0.02800
C720        C  0.71800789  0.02526548  0.88622698    -0.02800
C721        C  0.77315987  0.05460426  0.88454751     0.07100
C722        C  0.80153407  0.02834251  0.88169449    -0.03000
Br723      Br  0.87656597  0.06669732  0.87718565    -0.01600
Br724      Br  0.81780606  0.94189638  0.87854213    -0.01600
Br725      Br  0.67706302  0.05804711  0.89456102    -0.01600
Br726      Br  0.61621183  0.93561024  0.88796553    -0.01600
C727        C  0.19396254  0.32697881  0.98865032    -0.02700
C728        C  0.17486867  0.35313923  0.97074097     0.07000
C729        C  0.15395688  0.38055574  0.98654197    -0.02800
C730        C  0.15335868  0.38198687  0.51904810    -0.02800
C731        C  0.17772148  0.36008887  0.53637845     0.07100
C732        C  0.20075212  0.33570707  0.52027626    -0.03000
Br733      Br  0.24818265  0.31991740  0.54008578    -0.01600
Br734      Br  0.20416654  0.27277394  0.97284604    -0.01600
Br735      Br  0.11363054  0.40868072  0.53933220    -0.01600
Br736      Br  0.11813064  0.40933884  0.96431732    -0.01600
C737        C  0.97175061  0.21414759  0.92304578    -0.02700
C738        C  0.94458814  0.20302245  0.89530214     0.07000
C739        C  0.97374040  0.21358639  0.86777389    -0.02800
C740        C  0.02868815  0.24444237  0.86772667    -0.02800
C741        C  0.05590668  0.26201775  0.89568983     0.07100
C742        C  0.02678588  0.24285515  0.92329969    -0.03000
Br743      Br  0.05961861  0.25708516  0.96240925    -0.01600
Br744      Br  0.93471596  0.19122794  0.96121592    -0.01600
Br745      Br  0.06543598  0.26180647  0.82883460    -0.01600
Br746      Br  0.93854991  0.18183411  0.83031692    -0.01600
C747        C  0.78929147  0.01197967  0.61135281    -0.02700
C748        C  0.76337427  0.04000059  0.60599985     0.07000
C749        C  0.71114403  0.01379002  0.59606535    -0.02800
C750        C  0.68573111  0.96056455  0.59135068    -0.02800
C751        C  0.70958189  0.93149583  0.59929656     0.07100
C752        C  0.76266456  0.95796537  0.60779806    -0.03000
Br753      Br  0.80036366  0.92171488  0.61315543    -0.01600
Br754      Br  0.86051438  0.04724337  0.62511936    -0.01600
Br755      Br  0.62152760  0.92942822  0.56917951    -0.01600
Br756      Br  0.67542012  0.05101857  0.58528675    -0.01600
C757        C  0.61491132  0.83242158  0.97474714    -0.02700
C758        C  0.65261946  0.82556015  0.95841238     0.07000
C759        C  0.68834478  0.81794354  0.97596756    -0.02800
C760        C  0.68320453  0.81262672  0.50833970    -0.02800
C761        C  0.64177194  0.81437836  0.52460639     0.07100
C762        C  0.60718807  0.82384472  0.50674856    -0.03000
Br763      Br  0.54802778  0.82643661  0.52431355    -0.01600
Br764      Br  0.57907004  0.86255741  0.95433169    -0.01600
Br765      Br  0.73360269  0.80003427  0.52847527    -0.01600
Br766      Br  0.74688165  0.81621892  0.95709287    -0.01600
C767        C  0.79294227  0.49722713  0.66515110    -0.02700
C768        C  0.74197132  0.47627060  0.67790551     0.07000
C769        C  0.70800709  0.49210706  0.66532085    -0.02800
C770        C  0.72701999  0.53276900  0.64385585    -0.02800
C771        C  0.78088825  0.56048520  0.63601482     0.07100
C772        C  0.81048967  0.53641841  0.64296355    -0.03000
Br773      Br  0.86884839  0.54707498  0.61770123    -0.01600
Br774      Br  0.84126618  0.47456031  0.67745099    -0.01600
Br775      Br  0.67683946  0.54324135  0.62153052    -0.01600
Br776      Br  0.63419860  0.45712441  0.67555534    -0.01600
C777        C  0.72773253  0.70006620  0.58815990    -0.02700
C778        C  0.77032341  0.71795416  0.60848811     0.07000
C779        C  0.77574285  0.75415217  0.63097988    -0.02800
C780        C  0.74496519  0.77820171  0.62982107    -0.02800
C781        C  0.70871809  0.76642257  0.60608314     0.07100
C782        C  0.69681673  0.72371314  0.58729870    -0.03000
Br783      Br  0.63466768  0.69370658  0.56248861    -0.01600
Br784      Br  0.70767153  0.64013532  0.56305278    -0.01600
Br785      Br  0.74604018  0.82037950  0.66350369    -0.01600
Br786      Br  0.81960812  0.76523664  0.66580327    -0.01600
C787        C  0.02390270  0.81097741  0.61810778    -0.02700
C788        C  0.05465181  0.78738209  0.61425087     0.07000
C789        C  0.03033931  0.73511636  0.60568738    -0.02800
C790        C  0.97664076  0.70798033  0.60020307    -0.02800
C791        C  0.94460813  0.72891910  0.60777008     0.07100
C792        C  0.96892843  0.78177728  0.61517598    -0.03000
Br793      Br  0.92871852  0.81581300  0.61937602    -0.01600
Br794      Br  0.05708402  0.88290218  0.62823917    -0.01600
Br795      Br  0.95004165  0.64789983  0.57513128    -0.01600
Br796      Br  0.07046981  0.70116780  0.59718301    -0.01600
C797        C  0.22014886  0.83330855  0.99120720    -0.02700
C798        C  0.17715764  0.82728966  0.97337630     0.07000
C799        C  0.13247925  0.82172721  0.98995540    -0.02800
C800        C  0.12847718  0.81434797  0.52200707    -0.02800
C801        C  0.17240679  0.82409024  0.53950961     0.07100
C802        C  0.21919998  0.83712040  0.52343091    -0.03000
Br803      Br  0.28518505  0.87118395  0.54424476    -0.01600
Br804      Br  0.28381695  0.84027237  0.97348826    -0.01600
Br805      Br  0.06073114  0.78902640  0.54065135    -0.01600
Br806      Br  0.07541718  0.82660224  0.97188788    -0.01600
C807        C  0.50196163  0.21022769  0.82600717    -0.02700
C808        C  0.52821911  0.26306713  0.81872683     0.07000
C809        C  0.51645704  0.29600323  0.83602040    -0.02800
C810        C  0.47443346  0.27537364  0.85729996    -0.02800
C811        C  0.44479243  0.22139273  0.86258355     0.07100
C812        C  0.46538910  0.19132778  0.85011399    -0.03000
Br813      Br  0.45993171  0.13280188  0.87156019    -0.01600
Br814      Br  0.51314250  0.16130785  0.80283812    -0.01600
Br815      Br  0.46222896  0.32307410  0.88072287    -0.01600
Br816      Br  0.55968056  0.36985747  0.83221478    -0.01600
C817        C  0.24161623  0.21520556  0.87228347    -0.02700
C818        C  0.28336809  0.22817071  0.89241534     0.07000
C819        C  0.30192180  0.27370471  0.90989728    -0.02800
C820        C  0.27598287  0.30243150  0.90932439    -0.02800
C821        C  0.22952965  0.28479504  0.89265051     0.07100
C822        C  0.21276714  0.24118902  0.87388777    -0.03000
Br823      Br  0.15159982  0.21807504  0.84933946    -0.01600
Br824      Br  0.22982549  0.16869960  0.83892130    -0.01600
Br825      Br  0.30503149  0.36660138  0.93134314    -0.01600
Br826      Br  0.36461314  0.29937811  0.93372833    -0.01600
C827        C  0.20150386  0.97664323  0.89443772    -0.02700
C828        C  0.22880246  0.95066833  0.90194594     0.07000
C829        C  0.28009074  0.97973869  0.91292446    -0.02800
C830        C  0.30596919  0.03359174  0.91244077    -0.02800
C831        C  0.28140985  0.06005703  0.90100581     0.07100
C832        C  0.22769412  0.03111537  0.89409658    -0.03000
Br833      Br  0.18911281  0.06512665  0.88489400    -0.01600
Br834      Br  0.12850521  0.93831016  0.88455887    -0.01600
Br835      Br  0.37384775  0.07027376  0.93022523    -0.01600
Br836      Br  0.31454090  0.94642122  0.93108457    -0.01600
C837        C  0.76993389  0.53620879  0.80284465    -0.02700
C838        C  0.74315544  0.48519273  0.81301562     0.07000
C839        C  0.74047841  0.47448198  0.84437934    -0.02800
C840        C  0.76573576  0.51474968  0.86580303    -0.02800
C841        C  0.78920755  0.56750953  0.85635728     0.07100
C842        C  0.79247379  0.57694800  0.82397227    -0.03000
Br843      Br  0.82965682  0.64538122  0.80656863    -0.01600
Br844      Br  0.77478289  0.54995035  0.75925596    -0.01600
Br845      Br  0.77578281  0.49297761  0.90522640    -0.01600
Br846      Br  0.70445747  0.40325630  0.85747292    -0.01600
C847        C  0.83191011  0.61543530  0.98264526    -0.02700
C848        C  0.82516395  0.65206512  0.96570904     0.07000
C849        C  0.82064365  0.69019988  0.98248845    -0.02800
C850        C  0.82226266  0.69161823  0.51490302    -0.02800
C851        C  0.82580620  0.65302259  0.53207688     0.07100
C852        C  0.83127265  0.61519543  0.51507217    -0.03000
Br853      Br  0.84267401  0.56369048  0.53470340    -0.01600
Br854      Br  0.85056849  0.56926932  0.96216921    -0.01600
Br855      Br  0.81841436  0.74815330  0.53371422    -0.01600
Br856      Br  0.81013445  0.74124959  0.96217201    -0.01600
C857        C  0.98259771  0.75538136  0.86632686    -0.02700
C858        C  0.95370159  0.72579002  0.89208041     0.07000
C859        C  0.98190171  0.72402523  0.91746758    -0.02800
C860        C  0.03628213  0.74673139  0.91591163    -0.02800
C861        C  0.06470495  0.78361648  0.89325444     0.07100
C862        C  0.03758289  0.78672190  0.86773537    -0.03000
Br863      Br  0.07625477  0.82978851  0.83343266    -0.01600
Br864      Br  0.94862697  0.75113768  0.82837831    -0.01600
Br865      Br  0.06931958  0.71883683  0.94144741    -0.01600
Br866      Br  0.94913469  0.69259267  0.95537483    -0.01600
C867        C  0.73620753  0.70568435  0.90199535    -0.02700
C868        C  0.78644583  0.72685384  0.88823979     0.07000
C869        C  0.80551137  0.77251344  0.87104740    -0.02800
C870        C  0.77474101  0.79607342  0.86734959    -0.02800
C871        C  0.72855531  0.77931860  0.88473698     0.07100
C872        C  0.70837048  0.73252389  0.90115430    -0.03000
Br873      Br  0.64082672  0.70292903  0.92135960    -0.01600
Br874      Br  0.70428885  0.63924953  0.92194589    -0.01600
Br875      Br  0.78909238  0.84186943  0.83323693    -0.01600
Br876      Br  0.87233299  0.80161654  0.85098216    -0.01600
C877        C  0.53012191  0.28262831  0.65587478    -0.02700
C878        C  0.52404164  0.26260436  0.68566176     0.07000
C879        C  0.47375224  0.22618332  0.69606649    -0.02800
C880        C  0.43059099  0.20767823  0.67635624    -0.02800
C881        C  0.43683488  0.22394062  0.64517525     0.07100
C882        C  0.48645902  0.26671711  0.63677733    -0.03000
Br883      Br  0.49447462  0.31525136  0.60518215    -0.01600
Br884      Br  0.59878019  0.33255439  0.64097422    -0.01600
Br885      Br  0.36252921  0.16731718  0.69493096    -0.01600
Br886      Br  0.46283458  0.20496583  0.73858288    -0.01600
C887        C  0.26019357  0.03661190  0.57892455    -0.02700
C888        C  0.27083959  0.06481109  0.60648544     0.07000
C889        C  0.24589529  0.03778820  0.63362322    -0.02800
C890        C  0.21830738  0.98363376  0.63417542    -0.02800
C891        C  0.21406594  0.95543573  0.60742128     0.07100
C892        C  0.23149502  0.98240675  0.57935020    -0.03000
Br893      Br  0.21759180  0.94682481  0.54092594    -0.01600
Br894      Br  0.28527980  0.07037006  0.54006417    -0.01600
Br895      Br  0.18390906  0.94805847  0.67148283    -0.01600
Br896      Br  0.24561471  0.07440330  0.66971924    -0.01600
C897        C  0.39483605  0.18048240  0.51916676    -0.02700
C898        C  0.36042151  0.19221189  0.53558549     0.07000
C899        C  0.32566951  0.20150994  0.51856571    -0.02800
C900        C  0.32126084  0.19420769  0.98658496    -0.02800
C901        C  0.35880834  0.18723196  0.96950320     0.07100
C902        C  0.39728400  0.18260094  0.98674169    -0.03000
Br903      Br  0.45422340  0.17739364  0.96798515    -0.01600
Br904      Br  0.43388231  0.15374293  0.54022555    -0.01600
Br905      Br  0.26134810  0.19357808  0.96875623    -0.01600
Br906      Br  0.28512699  0.22764572  0.53821955    -0.01600
C907        C  0.22343349  0.20273000  0.61572836    -0.02700
C908        C  0.27827598  0.23004552  0.61225549     0.07000
C909        C  0.30408748  0.28398956  0.60827692    -0.02800
C910        C  0.27622046  0.31058553  0.60999719    -0.02800
C911        C  0.22095597  0.28315520  0.61260642     0.07100
C912        C  0.19481702  0.22903370  0.61535030    -0.03000
Br913      Br  0.11999223  0.19061380  0.62043966    -0.01600
Br914      Br  0.18723171  0.12942459  0.62172296    -0.01600
Br915      Br  0.31520969  0.38491688  0.60577428    -0.01600
Br916      Br  0.37701002  0.32183490  0.59620933    -0.01600
C917        C  0.20642747  0.79391418  0.68205228    -0.02700
C918        C  0.22133917  0.80118156  0.65044454     0.07000
C919        C  0.25895294  0.78727664  0.64112783    -0.02800
C920        C  0.27057748  0.75624814  0.66000885    -0.02800
C921        C  0.24923587  0.74291042  0.68970165     0.07100
C922        C  0.21863101  0.76337221  0.70102711    -0.03000
Br923      Br  0.19482059  0.75068770  0.74317192    -0.01600
Br924      Br  0.17543569  0.83071901  0.70127314    -0.01600
Br925      Br  0.31789577  0.73349228  0.64570051    -0.01600
Br926      Br  0.30671475  0.82214491  0.60789100    -0.01600
C927        C  0.52324861  0.79933488  0.64315599    -0.02700
C928        C  0.54190959  0.76878354  0.62915400     0.07000
C929        C  0.51134387  0.71487352  0.63395329    -0.02800
C930        C  0.47066970  0.69449141  0.65635572    -0.02800
C931        C  0.46145545  0.72780419  0.67528159     0.07100
C932        C  0.48902113  0.78093483  0.66838297    -0.03000
Br933      Br  0.48480537  0.83166731  0.69394500    -0.01600
Br934      Br  0.52810997  0.85841289  0.62270727    -0.01600
Br935      Br  0.42677413  0.62082825  0.65981446    -0.01600
Br936      Br  0.52137305  0.66793887  0.60831960    -0.01600
C937        C  0.29658210  0.79731358  0.82965216    -0.02700
C938        C  0.26794491  0.74416929  0.82323045     0.07000
C939        C  0.22470532  0.71234456  0.84242970    -0.02800
C940        C  0.20674199  0.73431141  0.86473918    -0.02800
C941        C  0.23256904  0.78844499  0.86877858     0.07100
C942        C  0.28214974  0.81755567  0.85448834    -0.03000
Br943      Br  0.33782705  0.87669468  0.87425827    -0.01600
Br944      Br  0.35354585  0.84515381  0.80368326    -0.01600
Br945      Br  0.14850650  0.68881394  0.89076342    -0.01600
Br946      Br  0.19004172  0.63823372  0.83927325    -0.01600
C947        C  0.47009880  0.73371356  0.84033653    -0.02700
C948        C  0.47842868  0.72697488  0.80947534     0.07000
C949        C  0.52939404  0.74559953  0.79833255    -0.02800
C950        C  0.57240026  0.77024677  0.81810985    -0.02800
C951        C  0.56501855  0.77560141  0.85019006     0.07100
C952        C  0.51275461  0.76001973  0.86028174    -0.03000
Br953      Br  0.49633194  0.78324171  0.89774579    -0.01600
Br954      Br  0.39902287  0.70873805  0.85454422    -0.01600
Br955      Br  0.64113271  0.80064120  0.79902493    -0.01600
Br956      Br  0.53976849  0.73794119  0.75520851    -0.01600
C957        C  0.19893593  0.41962376  0.67934748    -0.02700
C958        C  0.18983607  0.42609265  0.64803437     0.07000
C959        C  0.19400315  0.47380799  0.63979671    -0.02800
C960        C  0.21946752  0.51673150  0.65919145    -0.02800
C961        C  0.23612288  0.51134461  0.68817888     0.07100
C962        C  0.22368038  0.46242533  0.69877200    -0.03000
Br963      Br  0.23958882  0.45408919  0.74051285    -0.01600
Br964      Br  0.17308187  0.35257710  0.69782120    -0.01600
Br965      Br  0.23148869  0.58320784  0.64625495    -0.01600
Br966      Br  0.15431978  0.47884686  0.60670817    -0.01600
C967        C  0.26428975  0.47355440  0.86190247    -0.02700
C968        C  0.20979566  0.43933103  0.86573686     0.07000
C969        C  0.17601099  0.45420576  0.85190274    -0.02800
C970        C  0.19404518  0.49010613  0.82769176    -0.02800
C971        C  0.24809875  0.52035439  0.82124122     0.07100
C972        C  0.28321654  0.51359424  0.83988852    -0.03000
Br973      Br  0.35768231  0.56000784  0.83638953    -0.01600
Br974      Br  0.31387514  0.47012465  0.88879467    -0.01600
Br975      Br  0.14267254  0.49348167  0.80230597    -0.01600
Br976      Br  0.11137241  0.44055912  0.87170779    -0.01600
loop_ 
_geom_bond_atom_site_label_1 
_geom_bond_atom_site_label_2 
_geom_bond_distance 
_geom_bond_site_symmetry_2 
_ccdc_geom_bond_type 
Fe1          O17   2.059       .  S
Fe1           O7   2.095       .  S
Fe1          O14   2.083       .  S
Fe1           O6   2.065       .  S
Fe1          O12   1.971       .  S
Fe2           O5   2.083       .  S
Fe2           O9   2.073       .  S
Fe2          O13   2.081       .  S
Fe2          O18   2.076       .  S
Fe2          O12   1.965       .  S
Fe3          O21   2.071       .  S
Fe3           O8   2.066       .  S
Fe3          O15   2.060       .  S
Fe3           O4   2.074       .  S
Fe3          O12   1.952       .  S
O4           C11   1.268       .  A
O5           C19   1.272       .  A
O6           C11   1.267       .  A
O7           C10   1.274       .  A
O8           C20   1.270       .  A
O9           C22   1.271       .  A
C10          O15   1.270       .  A
C10         C443   1.502       .  S
C11         C460   1.478       .  S
O13          C16   1.273       .  A
O14          C16   1.272       .  A
C16         C483   1.502       .  S
O17          C22   1.269       .  A
O18          C20   1.270       .  A
C19          O21   1.268       .  A
C19         C433   1.483       .  S
C20         C450   1.494       .  S
C22         C473   1.471       .  S
C23          C24   1.549       .  S
C23          C29   1.526       .  S
C23          C27   1.549       .  S
C23         C393   1.560       .  S
C24          H31   1.085       .  S
C24          C25   1.373       .  D
C25          C26   1.545       .  S
C25         C400   1.506       .  S
C26          C30   1.550       .  S
C26          C28   1.550       .  S
C26          H32   1.108       .  S
C27          H33   1.076       .  S
C27          C28   1.371       .  D
C28         C410   1.515       .  S
C29          H34   1.087       .  S
C29          C30   1.361       .  D
C30         C420   1.496       .  S
C35          C36   1.542       .  S
C35          C41   1.533       .  S
C35          C39   1.556       .  S
C35         C353   1.568       .  S
C36          H43   1.087       .  S
C36          C37   1.363       .  D
C37          C38   1.544       .  S
C37         C370   1.504       .  S
C38          C42   1.559       .  S
C38          C40   1.553       .  S
C38          H44   1.106       .  S
C39          H45   1.079       .  S
C39          C40   1.378       .  D
C40         C360   1.526       .  S
C41          H46   1.087       .  S
C41          C42   1.361       .  D
C42         C380   1.499       .  S
C47          C48   1.532       .  S
C47          C53   1.546       .  S
C47          C51   1.544       .  S
C47         C323   1.553       .  S
C48          H55   1.086       .  S
C48          C49   1.361       .  D
C49          C50   1.568       .  S
C49         C330   1.499       .  S
C50          C54   1.539       .  S
C50          C52   1.554       .  S
C50          H56   1.099       .  S
C51          H57   1.082       .  S
C51          C52   1.378       .  D
C52         C413   1.531       .  S
C53          H58   1.081       .  S
C53          C54   1.363       .  D
C54         C343   1.508       .  S
C59          C60   1.546       .  S
C59          C65   1.528       .  S
C59          C63   1.546       .  S
C59         C453   1.550       .  S
C60          H67   1.072       .  S
C60          C61   1.364       .  D
C61          C62   1.534       .  S
C61         C340   1.501       .  S
C62          C66   1.561       .  S
C62          C64   1.549       .  S
C62          H68   1.095       .  S
C63          H69   1.082       .  S
C63          C64   1.380       .  D
C64         C310   1.530       .  S
C65          H70   1.086       .  S
C65          C66   1.358       .  D
C66         C373   1.488       .  S
C71          C72   1.533       .  S
C71          C77   1.535       .  S
C71          C75   1.558       .  S
C71         C430   1.560       .  S
C72          H79   1.087       .  S
C72          C73   1.358       .  D
C73          C74   1.548       .  S
C73         C300   1.489       .  S
C74          C78   1.546       .  S
C74          C76   1.546       .  S
C74          H80   1.108       .  S
C75          H81   1.082       .  S
C75          C76   1.378       .  D
C76         C313   1.516       .  S
C77          H82   1.086       .  S
C77          C78   1.371       .  D
C78         C403   1.502       .  S
C83          C84   1.534       .  S
C83          C89   1.543       .  S
C83          C87   1.541       .  S
C83         C283   1.552       .  S
C84          H91   1.085       .  S
C84          C85   1.361       .  D
C85          C86   1.563       .  S
C85         C290   1.497       .  S
C86          C90   1.537       .  S
C86          C88   1.553       .  S
C86          H92   1.096       .  S
C87          H93   1.083       .  S
C87          C88   1.378       .  D
C88         C363   1.532       .  S
C89          H94   1.085       .  S
C89          C90   1.365       .  D
C90         C303   1.503       .  S
C95          C96   1.544       .  S
C95         C101   1.531       .  S
C95          C99   1.551       .  S
C95         C440   1.560       .  S
C96         H103   1.081       .  S
C96          C97   1.360       .  D
C97          C98   1.537       .  S
C97         C263   1.503       .  S
C98         C102   1.566       .  S
C98         C100   1.554       .  S
C98         H104   1.100       .  S
C99         H105   1.082       .  S
C99         C100   1.384       .  D
C100        C273   1.539       .  S
C101        H106   1.086       .  S
C101        C102   1.362       .  D
C102        C293   1.494       .  S
C107        C108   1.547       .  S
C107        C113   1.543       .  S
C107        C111   1.538       .  S
C107        C480   1.559       .  S
C108        H115   1.078       .  S
C108        C109   1.367       .  D
C109        C110   1.544       .  S
C109        C253   1.513       .  S
C110        C114   1.546       .  S
C110        C112   1.556       .  S
C110        H116   1.102       .  S
C111        H117   1.086       .  S
C111        C112   1.373       .  D
C112        C240   1.516       .  S
C113        H118   1.086       .  S
C113        C114   1.366       .  D
C114        C333   1.496       .  S
C119        C120   1.536       .  S
C119        C125   1.543       .  S
C119        C123   1.550       .  S
C119        C210   1.564       .  S
C120        H127   1.086       .  S
C120        C121   1.366       .  D
C121        C122   1.549       .  S
C121        C233   1.510       .  S
C122        C126   1.551       .  S
C122        C124   1.554       .  S
C122        H128   1.108       .  S
C123        H129   1.084       .  S
C123        C124   1.372       .  D
C124        C220   1.515       .  S
C125        H130   1.083       .  S
C125        C126   1.367       .  D
C126        C250   1.507       .  S
C131        C132   1.526       .  S
C131        C137   1.533       .  S
C131        C135   1.562       .  S
C131        C463   1.564       .  S
C132        H139   1.087       .  S
C132        C133   1.360       .  D
C133        C134   1.571       .  S
C133        C383   1.497       .  S
C134        C138   1.552       .  S
C134        C136   1.545       .  S
C134        H140   1.100       .  S
C135        H141   1.082       .  S
C135        C136   1.379       .  D
C136        C270   1.530       .  S
C137        H142   1.086       .  S
C137        C138   1.365       .  D
C138        C230   1.521       .  S
C143        C144   1.544       .  S
C143        C149   1.529       .  S
C143        C147   1.555       .  S
C143        C190   1.563       .  S
C144        H151   1.086       .  S
C144        C145   1.373       .  D
C145        C146   1.552       .  S
C145        C200   1.511       .  S
C146        C150   1.543       .  S
C146        C148   1.551       .  S
C146        H152   1.106       .  S
C147        H153   1.077       .  S
C147        C148   1.373       .  D
C148        C223   1.521       .  S
C149        H154   1.087       .  S
C149        C150   1.359       .  D
C150        C260   1.490       .  S
C155        C156   1.535       .  S
C155        C161   1.530       .  S
C155        C159   1.556       .  S
C155        C470   1.549       .  S
C156        H163   1.085       .  S
C156        C157   1.358       .  D
C157        C158   1.546       .  S
C157        C423   1.498       .  S
C158        C162   1.554       .  S
C158        C160   1.554       .  S
C158        H164   1.109       .  S
C159        H165   1.083       .  S
C159        C160   1.372       .  D
C160        C243   1.513       .  S
C161        H166   1.086       .  S
C161        C162   1.367       .  D
C162        C203   1.505       .  S
Fe167       O183   2.089       .  S
Fe167       O173   2.066       .  S
Fe167       O180   2.059       .  S
Fe167       O172   2.093       .  S
Fe167       O178   1.945       .  S
Fe168       O171   2.078       .  S
Fe168       O175   2.063       .  S
Fe168       O179   2.080       .  S
Fe168       O184   2.064       .  S
Fe168       O178   1.957       .  S
Fe169       O187   2.053       .  S
Fe169       O174   2.095       .  S
Fe169       O181   2.090       .  S
Fe169       O170   2.064       .  S
Fe169       O178   1.941       .  S
O170        C177   1.268       .  A
O171        C185   1.269       .  A
O172        C177   1.273       .  A
O173        C176   1.270       .  A
O174        C186   1.277       .  A
O175        C188   1.269       .  A
C176        O181   1.276       .  A
C176        C213   1.489       .  S
C177        C193   1.485       .  S
O179        C182   1.269       .  A
O180        C182   1.267       .  A
C182        C280   1.499       .  S
O183        C188   1.274       .  A
O184        C186   1.272       .  A
C185        O187   1.265       .  A
C185        C320   1.488       .  S
C186        C390   1.489       .  S
C188        C350   1.479       .  S
C189        C190   1.430       .  A
C189        C194   1.411       .  A
C189       Br196   1.930       .  S
C190        C191   1.432       .  A
C191        C192   1.415       .  A
C191       Br198   1.933       .  S
C192        C193   1.404       .  A
C192       Br197   1.929       .  S
C193        C194   1.402       .  A
C194       Br195   1.931       .  S
C199        C200   1.415       .  A
C199        C204   1.412   1_655  A
C199       Br206   1.922       .  S
C200        C201   1.413       .  A
C201        C202   1.409   1_655  A
C201       Br208   1.913       .  S
C202        C203   1.409       .  A
C202       Br207   1.912       .  S
C203        C204   1.414       .  A
C204       Br205   1.929       .  S
C209        C210   1.434       .  A
C209        C214   1.417       .  A
C209       Br216   1.931       .  S
C210        C211   1.432       .  A
C211        C212   1.407       .  A
C211       Br218   1.928       .  S
C212        C213   1.403       .  A
C212       Br217   1.937       .  S
C213        C214   1.406       .  A
C214       Br215   1.936       .  S
C219        C220   1.411       .  A
C219        C712   1.412       .  A
C219       Br226   1.925       .  S
C220        C221   1.420       .  A
C221        C710   1.421       .  A
C221       Br228   1.934       .  S
C222        C223   1.421       .  A
C222        C709   1.421   1_554  A
C222       Br227   1.936       .  S
C223        C224   1.418       .  A
C224        C707   1.412   1_554  A
C224       Br225   1.919       .  S
C229        C230   1.421       .  A
C229        C234   1.418   1_565  A
C229       Br236   1.920       .  S
C230        C231   1.425       .  A
C231        C232   1.412   1_565  A
C231       Br238   1.939       .  S
C232        C233   1.415       .  A
C232       Br237   1.932       .  S
C233        C234   1.411       .  A
C234       Br235   1.930       .  S
C239        C240   1.414       .  A
C239        C732   1.403       .  A
C239       Br246   1.921       .  S
C240        C241   1.424       .  A
C241        C730   1.420       .  A
C241       Br248   1.935       .  S
C242        C243   1.417       .  A
C242        C729   1.420   1_554  A
C242       Br247   1.926       .  S
C243        C244   1.405       .  A
C244        C727   1.403   1_554  A
C244       Br245   1.904       .  S
C249        C250   1.406       .  A
C249        C254   1.411   1_655  A
C249       Br256   1.914       .  S
C250        C251   1.412       .  A
C251        C252   1.412   1_655  A
C251       Br258   1.926       .  S
C252        C253   1.419       .  A
C252       Br257   1.932       .  S
C253        C254   1.419       .  A
C254       Br255   1.914       .  S
C259        C260   1.412       .  A
C259        C264   1.416   1_545  A
C259       Br266   1.927       .  S
C260        C261   1.411       .  A
C261        C262   1.402   1_545  A
C261       Br268   1.941       .  S
C262        C263   1.413       .  A
C262       Br267   1.918       .  S
C263        C264   1.414       .  A
C264       Br265   1.921       .  S
C269        C270   1.414       .  A
C269        C762   1.417       .  A
C269       Br276   1.927       .  S
C270        C271   1.419       .  A
C271        C760   1.421       .  A
C271       Br278   1.930       .  S
C272        C273   1.431       .  A
C272        C759   1.421   1_554  A
C272       Br277   1.929       .  S
C273        C274   1.428       .  A
C274        C757   1.417   1_554  A
C274       Br275   1.936       .  S
C279        C280   1.418       .  A
C279        C284   1.407       .  A
C279       Br286   1.942       .  S
C280        C281   1.422       .  A
C281        C282   1.413       .  A
C281       Br288   1.938       .  S
C282        C283   1.418       .  A
C282       Br287   1.935       .  S
C283        C284   1.419       .  A
C284       Br285   1.923       .  S
C289        C290   1.417       .  A
C289        C294   1.408       .  A
C289       Br296   1.932       .  S
C290        C291   1.413       .  A
C291        C292   1.415       .  A
C291       Br298   1.928       .  S
C292        C293   1.412       .  A
C292       Br297   1.928       .  S
C293        C294   1.411       .  A
C294       Br295   1.936       .  S
C299        C300   1.410       .  A
C299        C304   1.417   1_455  A
C299       Br306   1.928       .  S
C300        C301   1.414       .  A
C301        C302   1.399   1_455  A
C301       Br308   1.941       .  S
C302        C303   1.407       .  A
C302       Br307   1.915       .  S
C303        C304   1.417       .  A
C304       Br305   1.920       .  S
C309        C310   1.430       .  A
C309        C802   1.413       .  A
C309       Br316   1.937       .  S
C310        C311   1.432       .  A
C311        C800   1.412       .  A
C311       Br318   1.939       .  S
C312        C313   1.413       .  A
C312        C799   1.412   1_554  A
C312       Br317   1.922       .  S
C313        C314   1.413       .  A
C314        C797   1.413   1_554  A
C314       Br315   1.929       .  S
C319        C320   1.411       .  A
C319        C324   1.402       .  A
C319       Br326   1.938       .  S
C320        C321   1.414       .  A
C321        C322   1.414       .  A
C321       Br328   1.937       .  S
C322        C323   1.425       .  A
C322       Br327   1.929       .  S
C323        C324   1.420       .  A
C324       Br325   1.927       .  S
C329        C330   1.411       .  A
C329        C334   1.413       .  A
C329       Br336   1.926       .  S
C330        C331   1.418       .  A
C331        C332   1.410       .  A
C331       Br338   1.930       .  S
C332        C333   1.411       .  A
C332       Br337   1.933       .  S
C333        C334   1.410       .  A
C334       Br335   1.920       .  S
C339        C340   1.413       .  A
C339        C344   1.419   1_565  A
C339       Br346   1.925       .  S
C340        C341   1.409       .  A
C341        C342   1.403   1_565  A
C341       Br348   1.923       .  S
C342        C343   1.411       .  A
C342       Br347   1.915       .  S
C343        C344   1.414       .  A
C344       Br345   1.916       .  S
C349        C350   1.400       .  A
C349        C354   1.410       .  A
C349       Br356   1.938       .  S
C350        C351   1.400       .  A
C351        C352   1.416       .  A
C351       Br358   1.939       .  S
C352        C353   1.437       .  A
C352       Br357   1.921       .  S
C353        C354   1.436       .  A
C354       Br355   1.936       .  S
C359        C360   1.422       .  A
C359        C852   1.416       .  A
C359       Br366   1.940       .  S
C360        C361   1.418       .  A
C361        C850   1.417       .  A
C361       Br368   1.928       .  S
C362        C363   1.429       .  A
C362        C849   1.417   1_554  A
C362       Br367   1.936       .  S
C363        C364   1.429       .  A
C364        C847   1.416   1_554  A
C364       Br365   1.942       .  S
C369        C370   1.418       .  A
C369        C374   1.417   1_655  A
C369       Br376   1.918       .  S
C370        C371   1.411       .  A
C371        C372   1.399   1_655  A
C371       Br378   1.906       .  S
C372        C373   1.404       .  A
C372       Br377   1.934       .  S
C373        C374   1.410       .  A
C374       Br375   1.930       .  S
C379        C380   1.417       .  A
C379        C384   1.409       .  A
C379       Br386   1.935       .  S
C380        C381   1.410       .  A
C381        C382   1.412       .  A
C381       Br388   1.917       .  S
C382        C383   1.409       .  A
C382       Br387   1.925       .  S
C383        C384   1.416       .  A
C384       Br385   1.936       .  S
C389        C390   1.406       .  A
C389        C394   1.413       .  A
C389       Br396   1.932       .  S
C390        C391   1.407       .  A
C391        C392   1.411       .  A
C391       Br398   1.936       .  S
C392        C393   1.427       .  A
C392       Br397   1.926       .  S
C393        C394   1.431       .  A
C394       Br395   1.935       .  S
C399        C400   1.415       .  A
C399        C404   1.412   1_545  A
C399       Br406   1.921       .  S
C400        C401   1.413       .  A
C401        C402   1.410   1_545  A
C401       Br408   1.921       .  S
C402        C403   1.411       .  A
C402       Br407   1.929       .  S
C403        C404   1.414       .  A
C404       Br405   1.922       .  S
C409        C410   1.417       .  A
C409        C902   1.417   1_554  A
C409       Br416   1.941       .  S
C410        C411   1.410       .  A
C411        C900   1.411   1_554  A
C411       Br418   1.921       .  S
C412        C413   1.428       .  A
C412        C899   1.411       .  A
C412       Br417   1.932       .  S
C413        C414   1.433       .  A
C414        C897   1.417       .  A
C414       Br415   1.936       .  S
C419        C420   1.411       .  A
C419        C424   1.415       .  A
C419       Br426   1.926       .  S
C420        C421   1.416       .  A
C421        C422   1.404       .  A
C421       Br428   1.936       .  S
C422        C423   1.419       .  A
C422       Br427   1.944       .  S
C423        C424   1.415       .  A
C424       Br425   1.928       .  S
C429        C430   1.428       .  A
C429        C434   1.413       .  A
C429       Br436   1.935       .  S
C430        C431   1.422       .  A
C431        C432   1.412       .  A
C431       Br438   1.920       .  S
C432        C433   1.404       .  A
C432       Br437   1.932       .  S
C433        C434   1.406       .  A
C434       Br435   1.933       .  S
C439        C440   1.418       .  A
C439        C444   1.401       .  A
C439       Br446   1.928       .  S
C440        C441   1.422       .  A
C441        C442   1.421       .  A
C441       Br448   1.930       .  S
C442        C443   1.420       .  A
C442       Br447   1.934       .  S
C443        C444   1.415       .  A
C444       Br445   1.938       .  S
C449        C450   1.414       .  A
C449        C454   1.404       .  A
C449       Br456   1.934       .  S
C450        C451   1.419       .  A
C451        C452   1.413       .  A
C451       Br458   1.937       .  S
C452        C453   1.422       .  A
C452       Br457   1.934       .  S
C453        C454   1.416       .  A
C454       Br455   1.929       .  S
C459        C460   1.399       .  A
C459        C464   1.414       .  A
C459       Br466   1.939       .  S
C460        C461   1.400       .  A
C461        C462   1.412       .  A
C461       Br468   1.936       .  S
C462        C463   1.436       .  A
C462       Br467   1.941       .  S
C463        C464   1.436       .  A
C464       Br465   1.926       .  S
C469        C470   1.429       .  A
C469        C474   1.407       .  A
C469       Br476   1.937       .  S
C470        C471   1.422       .  A
C471        C472   1.410       .  A
C471       Br478   1.924       .  S
C472        C473   1.402       .  A
C472       Br477   1.930       .  S
C473        C474   1.403       .  A
C474       Br475   1.936       .  S
C479        C480   1.422       .  A
C479        C484   1.417       .  A
C479       Br486   1.930       .  S
C480        C481   1.420       .  A
C481        C482   1.409       .  A
C481       Br488   1.935       .  S
C482        C483   1.414       .  A
C482       Br487   1.932       .  S
C483        C484   1.417       .  A
C484       Br485   1.935       .  S
Fe489       O505   2.059       .  S
Fe489       O495   2.095       .  S
Fe489       O502   2.083       .  S
Fe489       O494   2.065       .  S
Fe489       O500   1.971       .  S
Fe490       O493   2.083       .  S
Fe490       O497   2.073       .  S
Fe490       O501   2.081       .  S
Fe490       O506   2.076       .  S
Fe490       O500   1.965       .  S
Fe491       O509   2.071       .  S
Fe491       O496   2.066       .  S
Fe491       O503   2.060       .  S
Fe491       O492   2.074       .  S
Fe491       O500   1.952       .  S
O492        C499   1.268       .  A
O493        C507   1.272       .  A
O494        C499   1.267       .  A
O495        C498   1.274       .  A
O496        C508   1.270       .  A
O497        C510   1.271       .  A
C498        O503   1.270       .  A
C498        C931   1.502       .  S
C499        C948   1.478       .  S
O501        C504   1.273       .  A
O502        C504   1.272       .  A
C504        C971   1.502       .  S
O505        C510   1.269       .  A
O506        C508   1.270       .  A
C507        O509   1.268       .  A
C507        C921   1.483       .  S
C508        C938   1.494       .  S
C510        C961   1.471       .  S
C511        C512   1.549       .  S
C511        C517   1.526       .  S
C511        C515   1.549       .  S
C511        C881   1.560       .  S
C512        H519   1.085       .  S
C512        C513   1.373       .  D
C513        C514   1.545       .  S
C513        C888   1.506       .  S
C514        C518   1.550       .  S
C514        C516   1.550       .  S
C514        H520   1.108       .  S
C515        H521   1.076       .  S
C515        C516   1.371       .  D
C516        C898   1.515       .  S
C517        H522   1.087       .  S
C517        C518   1.361       .  D
C518        C908   1.496       .  S
C523        C524   1.542       .  S
C523        C529   1.533       .  S
C523        C527   1.556       .  S
C523        C841   1.568       .  S
C524        H531   1.087       .  S
C524        C525   1.363       .  D
C525        C526   1.544       .  S
C525        C858   1.504       .  S
C526        C530   1.559       .  S
C526        C528   1.553       .  S
C526        H532   1.106       .  S
C527        H533   1.079       .  S
C527        C528   1.378       .  D
C528        C848   1.526       .  S
C529        H534   1.087       .  S
C529        C530   1.361       .  D
C530        C868   1.499       .  S
C535        C536   1.532       .  S
C535        C541   1.546       .  S
C535        C539   1.544       .  S
C535        C811   1.553       .  S
C536        H543   1.086       .  S
C536        C537   1.361       .  D
C537        C538   1.568       .  S
C537        C818   1.499       .  S
C538        C542   1.539       .  S
C538        C540   1.554       .  S
C538        H544   1.099       .  S
C539        H545   1.082       .  S
C539        C540   1.378       .  D
C540        C901   1.531       .  S
C541        H546   1.081       .  S
C541        C542   1.363       .  D
C542        C831   1.508       .  S
C547        C548   1.546       .  S
C547        C553   1.528       .  S
C547        C551   1.546       .  S
C547        C941   1.550       .  S
C548        H555   1.072       .  S
C548        C549   1.364       .  D
C549        C550   1.534       .  S
C549        C828   1.501       .  S
C550        C554   1.561       .  S
C550        C552   1.549       .  S
C550        H556   1.095       .  S
C551        H557   1.082       .  S
C551        C552   1.380       .  D
C552        C798   1.530       .  S
C553        H558   1.086       .  S
C553        C554   1.358       .  D
C554        C861   1.488       .  S
C559        C560   1.533       .  S
C559        C565   1.535       .  S
C559        C563   1.558       .  S
C559        C918   1.560       .  S
C560        H567   1.087       .  S
C560        C561   1.358       .  D
C561        C562   1.548       .  S
C561        C788   1.489       .  S
C562        C566   1.546       .  S
C562        C564   1.546       .  S
C562        H568   1.108       .  S
C563        H569   1.082       .  S
C563        C564   1.378       .  D
C564        C801   1.516       .  S
C565        H570   1.086       .  S
C565        C566   1.371       .  D
C566        C891   1.502       .  S
C571        C572   1.534       .  S
C571        C577   1.543       .  S
C571        C575   1.541       .  S
C571        C771   1.552       .  S
C572        H579   1.085       .  S
C572        C573   1.361       .  D
C573        C574   1.563       .  S
C573        C778   1.497       .  S
C574        C578   1.537       .  S
C574        C576   1.553       .  S
C574        H580   1.096       .  S
C575        H581   1.083       .  S
C575        C576   1.378       .  D
C576        C851   1.532       .  S
C577        H582   1.085       .  S
C577        C578   1.365       .  D
C578        C791   1.503       .  S
C583        C584   1.544       .  S
C583        C589   1.531       .  S
C583        C587   1.551       .  S
C583        C928   1.560       .  S
C584        H591   1.081       .  S
C584        C585   1.360       .  D
C585        C586   1.537       .  S
C585        C751   1.503       .  S
C586        C590   1.566       .  S
C586        C588   1.554       .  S
C586        H592   1.100       .  S
C587        H593   1.082       .  S
C587        C588   1.384       .  D
C588        C761   1.539       .  S
C589        H594   1.086       .  S
C589        C590   1.362       .  D
C590        C781   1.494       .  S
C595        C596   1.547       .  S
C595        C601   1.543       .  S
C595        C599   1.538       .  S
C595        C968   1.559       .  S
C596        H603   1.078       .  S
C596        C597   1.367       .  D
C597        C598   1.544       .  S
C597        C741   1.513       .  S
C598        C602   1.546       .  S
C598        C600   1.556       .  S
C598        H604   1.102       .  S
C599        H605   1.086       .  S
C599        C600   1.373       .  D
C600        C728   1.516       .  S
C601        H606   1.086       .  S
C601        C602   1.366       .  D
C602        C821   1.496       .  S
C607        C608   1.536       .  S
C607        C613   1.543       .  S
C607        C611   1.550       .  S
C607        C698   1.564       .  S
C608        H615   1.086       .  S
C608        C609   1.366       .  D
C609        C610   1.549       .  S
C609        C721   1.510       .  S
C610        C614   1.551       .  S
C610        C612   1.554       .  S
C610        H616   1.108       .  S
C611        H617   1.084       .  S
C611        C612   1.372       .  D
C612        C708   1.515       .  S
C613        H618   1.083       .  S
C613        C614   1.367       .  D
C614        C738   1.507       .  S
C619        C620   1.526       .  S
C619        C625   1.533       .  S
C619        C623   1.562       .  S
C619        C951   1.564       .  S
C620        H627   1.087       .  S
C620        C621   1.360       .  D
C621        C622   1.571       .  S
C621        C871   1.497       .  S
C622        C626   1.552       .  S
C622        C624   1.545       .  S
C622        H628   1.100       .  S
C623        H629   1.082       .  S
C623        C624   1.379       .  D
C624        C758   1.530       .  S
C625        H630   1.086       .  S
C625        C626   1.365       .  D
C626        C718   1.521       .  S
C631        C632   1.544       .  S
C631        C637   1.529       .  S
C631        C635   1.555       .  S
C631        C678   1.563       .  S
C632        H639   1.086       .  S
C632        C633   1.373       .  D
C633        C634   1.552       .  S
C633        C688   1.511       .  S
C634        C638   1.543       .  S
C634        C636   1.551       .  S
C634        H640   1.106       .  S
C635        H641   1.077       .  S
C635        C636   1.373       .  D
C636        C711   1.521       .  S
C637        H642   1.087       .  S
C637        C638   1.359       .  D
C638        C748   1.490       .  S
C643        C644   1.535       .  S
C643        C649   1.530       .  S
C643        C647   1.556       .  S
C643        C958   1.549       .  S
C644        H651   1.085       .  S
C644        C645   1.358       .  D
C645        C646   1.546       .  S
C645        C911   1.498       .  S
C646        C650   1.554       .  S
C646        C648   1.554       .  S
C646        H652   1.109       .  S
C647        H653   1.083       .  S
C647        C648   1.372       .  D
C648        C731   1.513       .  S
C649        H654   1.086       .  S
C649        C650   1.367       .  D
C650        C691   1.505       .  S
Fe655       O671   2.089       .  S
Fe655       O661   2.066       .  S
Fe655       O668   2.059       .  S
Fe655       O660   2.093       .  S
Fe655       O666   1.945       .  S
Fe656       O659   2.078       .  S
Fe656       O663   2.063       .  S
Fe656       O667   2.080       .  S
Fe656       O672   2.064       .  S
Fe656       O666   1.957       .  S
Fe657       O675   2.053       .  S
Fe657       O662   2.095       .  S
Fe657       O669   2.090       .  S
Fe657       O658   2.064       .  S
Fe657       O666   1.941       .  S
O658        C665   1.268       .  A
O659        C673   1.269       .  A
O660        C665   1.273       .  A
O661        C664   1.270       .  A
O662        C674   1.277       .  A
O663        C676   1.269       .  A
C664        O669   1.276       .  A
C664        C701   1.489       .  S
C665        C681   1.485       .  S
O667        C670   1.269       .  A
O668        C670   1.267       .  A
C670        C768   1.499       .  S
O671        C676   1.274       .  A
O672        C674   1.272       .  A
C673        O675   1.265       .  A
C673        C808   1.488       .  S
C674        C878   1.489       .  S
C676        C838   1.479       .  S
C677        C678   1.430       .  A
C677        C682   1.411       .  A
C677       Br684   1.930       .  S
C678        C679   1.432       .  A
C679        C680   1.415       .  A
C679       Br686   1.933       .  S
C680        C681   1.404       .  A
C680       Br685   1.929       .  S
C681        C682   1.402       .  A
C682       Br683   1.931       .  S
C687        C688   1.415       .  A
C687        C692   1.412   1_655  A
C687       Br694   1.922       .  S
C688        C689   1.413       .  A
C689        C690   1.409   1_655  A
C689       Br696   1.913       .  S
C690        C691   1.409       .  A
C690       Br695   1.912       .  S
C691        C692   1.414       .  A
C692       Br693   1.929       .  S
C697        C698   1.434       .  A
C697        C702   1.417       .  A
C697       Br704   1.931       .  S
C698        C699   1.432       .  A
C699        C700   1.407       .  A
C699       Br706   1.928       .  S
C700        C701   1.403       .  A
C700       Br705   1.937       .  S
C701        C702   1.406       .  A
C702       Br703   1.936       .  S
C707        C708   1.411       .  A
C707       Br714   1.925       .  S
C708        C709   1.420       .  A
C709       Br716   1.934       .  S
C710        C711   1.421       .  A
C710       Br715   1.936       .  S
C711        C712   1.418       .  A
C712       Br713   1.919       .  S
C717        C718   1.421       .  A
C717        C722   1.418   1_565  A
C717       Br724   1.920       .  S
C718        C719   1.425       .  A
C719        C720   1.412   1_565  A
C719       Br726   1.939       .  S
C720        C721   1.415       .  A
C720       Br725   1.932       .  S
C721        C722   1.411       .  A
C722       Br723   1.930       .  S
C727        C728   1.414       .  A
C727       Br734   1.921       .  S
C728        C729   1.424       .  A
C729       Br736   1.935       .  S
C730        C731   1.417       .  A
C730       Br735   1.926       .  S
C731        C732   1.405       .  A
C732       Br733   1.904       .  S
C737        C738   1.406       .  A
C737        C742   1.411   1_655  A
C737       Br744   1.914       .  S
C738        C739   1.412       .  A
C739        C740   1.412   1_655  A
C739       Br746   1.926       .  S
C740        C741   1.419       .  A
C740       Br745   1.932       .  S
C741        C742   1.419       .  A
C742       Br743   1.914       .  S
C747        C748   1.412       .  A
C747        C752   1.416   1_545  A
C747       Br754   1.927       .  S
C748        C749   1.411       .  A
C749        C750   1.402   1_545  A
C749       Br756   1.941       .  S
C750        C751   1.413       .  A
C750       Br755   1.918       .  S
C751        C752   1.414       .  A
C752       Br753   1.921       .  S
C757        C758   1.414       .  A
C757       Br764   1.927       .  S
C758        C759   1.419       .  A
C759       Br766   1.930       .  S
C760        C761   1.431       .  A
C760       Br765   1.929       .  S
C761        C762   1.428       .  A
C762       Br763   1.936       .  S
C767        C768   1.418       .  A
C767        C772   1.407       .  A
C767       Br774   1.942       .  S
C768        C769   1.422       .  A
C769        C770   1.413       .  A
C769       Br776   1.938       .  S
C770        C771   1.418       .  A
C770       Br775   1.935       .  S
C771        C772   1.419       .  A
C772       Br773   1.923       .  S
C777        C778   1.417       .  A
C777        C782   1.408       .  A
C777       Br784   1.932       .  S
C778        C779   1.413       .  A
C779        C780   1.415       .  A
C779       Br786   1.928       .  S
C780        C781   1.412       .  A
C780       Br785   1.928       .  S
C781        C782   1.411       .  A
C782       Br783   1.936       .  S
C787        C788   1.410       .  A
C787        C792   1.417   1_455  A
C787       Br794   1.928       .  S
C788        C789   1.414       .  A
C789        C790   1.399   1_455  A
C789       Br796   1.941       .  S
C790        C791   1.407       .  A
C790       Br795   1.915       .  S
C791        C792   1.417       .  A
C792       Br793   1.920       .  S
C797        C798   1.430       .  A
C797       Br804   1.937       .  S
C798        C799   1.432       .  A
C799       Br806   1.939       .  S
C800        C801   1.413       .  A
C800       Br805   1.922       .  S
C801        C802   1.413       .  A
C802       Br803   1.929       .  S
C807        C808   1.411       .  A
C807        C812   1.402       .  A
C807       Br814   1.938       .  S
C808        C809   1.414       .  A
C809        C810   1.414       .  A
C809       Br816   1.937       .  S
C810        C811   1.425       .  A
C810       Br815   1.929       .  S
C811        C812   1.420       .  A
C812       Br813   1.927       .  S
C817        C818   1.411       .  A
C817        C822   1.413       .  A
C817       Br824   1.926       .  S
C818        C819   1.418       .  A
C819        C820   1.410       .  A
C819       Br826   1.930       .  S
C820        C821   1.411       .  A
C820       Br825   1.933       .  S
C821        C822   1.410       .  A
C822       Br823   1.920       .  S
C827        C828   1.413       .  A
C827        C832   1.419   1_565  A
C827       Br834   1.925       .  S
C828        C829   1.409       .  A
C829        C830   1.403   1_565  A
C829       Br836   1.923       .  S
C830        C831   1.411       .  A
C830       Br835   1.915       .  S
C831        C832   1.414       .  A
C832       Br833   1.916       .  S
C837        C838   1.400       .  A
C837        C842   1.410       .  A
C837       Br844   1.938       .  S
C838        C839   1.400       .  A
C839        C840   1.416       .  A
C839       Br846   1.939       .  S
C840        C841   1.437       .  A
C840       Br845   1.921       .  S
C841        C842   1.436       .  A
C842       Br843   1.936       .  S
C847        C848   1.422       .  A
C847       Br854   1.940       .  S
C848        C849   1.418       .  A
C849       Br856   1.928       .  S
C850        C851   1.429       .  A
C850       Br855   1.936       .  S
C851        C852   1.429       .  A
C852       Br853   1.942       .  S
C857        C858   1.418       .  A
C857        C862   1.417   1_655  A
C857       Br864   1.918       .  S
C858        C859   1.411       .  A
C859        C860   1.399   1_655  A
C859       Br866   1.906       .  S
C860        C861   1.404       .  A
C860       Br865   1.934       .  S
C861        C862   1.410       .  A
C862       Br863   1.930       .  S
C867        C868   1.417       .  A
C867        C872   1.409       .  A
C867       Br874   1.935       .  S
C868        C869   1.410       .  A
C869        C870   1.412       .  A
C869       Br876   1.917       .  S
C870        C871   1.409       .  A
C870       Br875   1.925       .  S
C871        C872   1.416       .  A
C872       Br873   1.936       .  S
C877        C878   1.406       .  A
C877        C882   1.413       .  A
C877       Br884   1.932       .  S
C878        C879   1.407       .  A
C879        C880   1.411       .  A
C879       Br886   1.936       .  S
C880        C881   1.427       .  A
C880       Br885   1.926       .  S
C881        C882   1.431       .  A
C882       Br883   1.935       .  S
C887        C888   1.415       .  A
C887        C892   1.412   1_545  A
C887       Br894   1.921       .  S
C888        C889   1.413       .  A
C889        C890   1.410   1_545  A
C889       Br896   1.921       .  S
C890        C891   1.411       .  A
C890       Br895   1.929       .  S
C891        C892   1.414       .  A
C892       Br893   1.922       .  S
C897        C898   1.417       .  A
C897       Br904   1.941       .  S
C898        C899   1.410       .  A
C899       Br906   1.921       .  S
C900        C901   1.428       .  A
C900       Br905   1.932       .  S
C901        C902   1.433       .  A
C902       Br903   1.936       .  S
C907        C908   1.411       .  A
C907        C912   1.415       .  A
C907       Br914   1.926       .  S
C908        C909   1.416       .  A
C909        C910   1.404       .  A
C909       Br916   1.936       .  S
C910        C911   1.419       .  A
C910       Br915   1.944       .  S
C911        C912   1.415       .  A
C912       Br913   1.928       .  S
C917        C918   1.428       .  A
C917        C922   1.413       .  A
C917       Br924   1.935       .  S
C918        C919   1.422       .  A
C919        C920   1.412       .  A
C919       Br926   1.920       .  S
C920        C921   1.404       .  A
C920       Br925   1.932       .  S
C921        C922   1.406       .  A
C922       Br923   1.933       .  S
C927        C928   1.418       .  A
C927        C932   1.401       .  A
C927       Br934   1.928       .  S
C928        C929   1.422       .  A
C929        C930   1.421       .  A
C929       Br936   1.930       .  S
C930        C931   1.420       .  A
C930       Br935   1.934       .  S
C931        C932   1.415       .  A
C932       Br933   1.938       .  S
C937        C938   1.414       .  A
C937        C942   1.404       .  A
C937       Br944   1.934       .  S
C938        C939   1.419       .  A
C939        C940   1.413       .  A
C939       Br946   1.937       .  S
C940        C941   1.422       .  A
C940       Br945   1.934       .  S
C941        C942   1.416       .  A
C942       Br943   1.929       .  S
C947        C948   1.399       .  A
C947        C952   1.414       .  A
C947       Br954   1.939       .  S
C948        C949   1.400       .  A
C949        C950   1.412       .  A
C949       Br956   1.936       .  S
C950        C951   1.436       .  A
C950       Br955   1.941       .  S
C951        C952   1.436       .  A
C952       Br953   1.926       .  S
C957        C958   1.429       .  A
C957        C962   1.407       .  A
C957       Br964   1.937       .  S
C958        C959   1.422       .  A
C959        C960   1.410       .  A
C959       Br966   1.924       .  S
C960        C961   1.402       .  A
C960       Br965   1.930       .  S
C961        C962   1.403       .  A
C962       Br963   1.936       .  S
C967        C968   1.422       .  A
C967        C972   1.417       .  A
C967       Br974   1.930       .  S
C968        C969   1.420       .  A
C969        C970   1.409       .  A
C969       Br976   1.935       .  S
C970        C971   1.414       .  A
C970       Br975   1.932       .  S
C971        C972   1.417       .  A
C972       Br973   1.935       .  S
