geometry optimzed in LAMMPS
_audit_creation_date              2020-11-30 
_audit_creation_method            'lammps2cif' 
_symmetry_space_group_name_H-M    'P1' 
_symmetry_Int_Tables_number       1 
_symmetry_cell_setting            triclinic 
loop_ 
_symmetry_equiv_pos_as_xyz 
  x,y,z 
_cell_length_a                    25.58803577 
_cell_length_b                    31.433512422819042 
_cell_length_c                    39.28052096324229 
_cell_angle_alpha                 78.8722978559704 
_cell_angle_beta                  88.64592614449032 
_cell_angle_gamma                 89.859526397499 
loop_ 
_atom_site_label 
_atom_site_type_symbol 
_atom_site_fract_x 
_atom_site_fract_y 
_atom_site_fract_z 
_atom_site_charge 
C1          C  0.47454667  0.54556159  0.01058932     0.03400
C2          C  0.52741068  0.54416783  0.50524808     0.03300
C3          C  0.55327908  0.50548891  0.50180733    -0.17200
C4          C  0.52621612  0.46576735  0.50605105     0.03400
C5          C  0.47373510  0.46654458  0.01708879     0.03300
C6          C  0.44758134  0.50587405  0.01743111    -0.17200
H7          H  0.40600222  0.50551776  0.02358997     0.05400
H8          H  0.59508109  0.50616741  0.49646106     0.05400
C9          C  0.97052789  0.95362302  0.07128580     0.03400
C10         C  0.02528364  0.95441524  0.06681427     0.03300
C11         C  0.05135818  0.99447907  0.06057085    -0.18000
C12         C  0.02401633  0.03341229  0.06035408     0.03400
C13         C  0.96986582  0.03187826  0.06896362     0.03300
C14         C  0.94360926  0.99194745  0.07357874    -0.17200
H15         H  0.90155676  0.99086591  0.07797350     0.05400
H16         H  0.09321157  0.99542364  0.05534845     0.05400
Zr17       Zr  0.21784307  0.20016713  0.49003206     2.17500
O18         O  0.22699484  0.13093054  0.47115191    -0.50300
O19         O  0.16290900  0.23295395  0.44139694    -0.73500
O20         O  0.14991487  0.14864822  0.01333342    -0.80200
O21         O  0.34568708  0.24513699  0.44704503    -0.82000
O22         O  0.11874558  0.15969096  0.06577149    -0.77600
O23         O  0.28158014  0.19684642  0.44192682    -0.89200
O24         O  0.15223451  0.30420909  0.44382001    -0.75200
O25         O  0.15941223  0.23956919  0.02072596    -0.84700
O26         O  0.24711940  0.27341662  0.47346804    -0.84400
O27         O  0.23237548  0.17454827  0.05380212    -0.71100
O28         O  0.30907359  0.20866917  0.01206859    -0.83300
Zr29       Zr  0.27812027  0.29887664  0.08433310     2.26400
Zr30       Zr  0.17130222  0.21568348  0.08168181     2.06300
Zr31       Zr  0.32880620  0.28408020  0.99582625     2.10000
Zr32       Zr  0.18080177  0.31435388  0.00388053     1.78800
O33         O  0.41974259  0.26222187  0.99238793    -0.92100
O34         O  0.08738007  0.32037214  0.01574597    -0.39900
O35         O  0.26726925  0.32467256  0.02319865    -0.76500
O36         O  0.19045507  0.29141071  0.06524824    -0.95200
O37         O  0.25723807  0.22406432  0.10090089    -0.88500
O38         O  0.34036011  0.25958198  0.05649019    -0.91400
C39         C  0.14641281  0.27154742  0.42918451     1.02400
C40         C  0.32459009  0.21742073  0.43171112     1.15300
C41         C  0.11885111  0.14000059  0.04020514     1.06100
O42         O  0.08074143  0.23830556  0.08641863    -0.93500
O43         O  0.16190689  0.24107378  0.13586538    -0.89300
O44         O  0.22119434  0.29487063  0.13601615    -0.82400
C45         C  0.18277073  0.27057364  0.14965565     1.12700
O46         O  0.35406720  0.12329518  0.05064532    -0.95500
Zr47       Zr  0.31871304  0.18475002  0.07336449     1.88900
O48         O  0.33170588  0.26706771  0.13305532    -0.72100
O49         O  0.16801576  0.15406056  0.13004663    -0.51400
O50         O  0.28892479  0.11911293  0.11262501    -0.96100
O51         O  0.41397923  0.17914484  0.07358722    -0.53300
O52         O  0.34284780  0.19590501  0.13055088    -0.72700
C53         C  0.34627097  0.22829662  0.14596450     0.99700
O54         O  0.26482276  0.37014429  0.09923009    -0.61500
O55         O  0.35121301  0.33511608  0.44805180    -0.56300
O56         O  0.35180119  0.34899922  0.06620194    -0.93000
O57         O  0.37830205  0.34181234  0.01181868    -0.91400
O58         O  0.22273273  0.37516646  0.45316382    -0.91700
O59         O  0.15851645  0.38397033  0.01885928    -0.90500
C60         C  0.38038515  0.35958090  0.03839191     1.18500
H61         H  0.24958064  0.28224607  0.44851378     0.34500
H62         H  0.16665719  0.30794887  0.07703364     0.45300
H63         H  0.37544039  0.26520432  0.06295161     0.38900
H64         H  0.22397171  0.14406044  0.05960567     0.35300
H65         H  0.08456568  0.35201784  0.48255054     0.27100
H66         H  0.13039354  0.14977079  0.13621011     0.33100
H67         H  0.31694955  0.11214791  0.12976013     0.39000
H68         H  0.19199231  0.39106074  0.44235703     0.33400
H69         H  0.38441211  0.32652263  0.43783054     0.32300
H70         H  0.44109113  0.27185090  0.48412622     0.34000
H71         H  0.42147012  0.15307880  0.09137486     0.33000
H72         H  0.19061763  0.39303915  0.02915180     0.37000
H73         H  0.27136809  0.39126724  0.07735952     0.29700
H74         H  0.19610652  0.12878841  0.45684730     0.33900
H75         H  0.36007613  0.09999384  0.07102642     0.36800
H76         H  0.32456764  0.33263089  0.43067197     0.29400
H77         H  0.22669361  0.37234616  0.10341080     0.42300
H78         H  0.08258447  0.26885830  0.08931814     0.32300
H79         H  0.07250814  0.29195703  0.01367337     0.39900
H80         H  0.42634211  0.20352018  0.08392161     0.31800
H81         H  0.17803640  0.12859796  0.11996220     0.31800
H82         H  0.23391604  0.10979256  0.99384891     0.32100
Zr83       Zr  0.75990457  0.18578982  0.09408721     2.17500
O84         O  0.74614939  0.11445791  0.13058429    -0.50300
O85         O  0.81682655  0.21389026  0.13351254    -0.73500
O86         O  0.83478894  0.13708068  0.08928671    -0.80200
O87         O  0.63502510  0.23100989  0.12526830    -0.82000
O88         O  0.87165836  0.15699291  0.03520921    -0.77600
O89         O  0.69812697  0.18153360  0.14419034    -0.89200
O90         O  0.82940542  0.28616986  0.11377458    -0.75200
O91         O  0.82268219  0.22992433  0.05746351    -0.84700
O92         O  0.73414236  0.25941530  0.09109368    -0.84400
O93         O  0.75563140  0.16488604  0.03817326    -0.71100
O94         O  0.67384741  0.19268795  0.06974982    -0.83300
Zr95       Zr  0.71307934  0.29298790  0.47588006     2.26400
Zr96       Zr  0.81702715  0.21123830  0.00140989     2.06300
Zr97       Zr  0.64987727  0.26696798  0.06605600     2.10000
Zr98       Zr  0.79685441  0.30315420  0.05494686     1.78800
O99         O  0.55865674  0.24489865  0.06639104    -0.92100
O100        O  0.89118003  0.31219352  0.04660442    -0.39900
O101        O  0.71222748  0.31192125  0.02997063    -0.76500
O102        O  0.79343055  0.28563410  0.99795765    -0.95200
O103        O  0.73896225  0.21942438  0.48036290    -0.88500
O104        O  0.64395472  0.24767897  0.01045987    -0.91400
C105        C  0.83433047  0.25120221  0.13655728     1.02400
C106        C  0.65556147  0.20221617  0.14858093     1.15300
C107        C  0.86954146  0.13346761  0.06563355     1.06100
O108        O  0.90239946  0.24551338  0.98922841    -0.93500
O109        O  0.83244754  0.23614511  0.44673345    -0.89300
O110        O  0.77267050  0.28795838  0.42614543    -0.82400
C111        C  0.81220764  0.26355098  0.42227464     1.12700
O112        O  0.64467232  0.10381027  0.04724856    -0.95500
Zr113      Zr  0.67073750  0.17426100  0.01334817     1.88900
O114        O  0.65696383  0.26665006  0.43470680    -0.72100
O115        O  0.83952427  0.15262974  0.47754819    -0.51400
O116        O  0.70992290  0.11941933  0.48395942    -0.96100
O117        O  0.57635336  0.16254010  0.01709776    -0.53300
O118        O  0.64771130  0.19390854  0.45367999    -0.72700
C119        C  0.64225086  0.22873402  0.43093423     0.99700
O120        O  0.73517681  0.36448798  0.44201036    -0.61500
O121        O  0.62963405  0.31984181  0.10248277    -0.56300
O122        O  0.64363052  0.34751776  0.48014036    -0.93000
O123        O  0.61030704  0.33330951  0.03662672    -0.91400
O124        O  0.76340621  0.36111765  0.08249062    -0.91700
O125        O  0.82230815  0.37503007  0.02382130    -0.90500
C126        C  0.61184668  0.35626806  0.00595580     1.18500
H127        H  0.73216997  0.26676119  0.11384123     0.34500
H128        H  0.82230998  0.30435409  0.48951361     0.45300
H129        H  0.60917346  0.25267180  0.00160295     0.38900
H130        H  0.76572906  0.13489700  0.04010585     0.35300
H131        H  0.90205201  0.32730395  0.06520130     0.27100
H132        H  0.87813704  0.15103942  0.47600762     0.33100
H133        H  0.68217652  0.11361804  0.46828747     0.39000
H134        H  0.72802095  0.36733817  0.07312471     0.33400
H135        H  0.59653366  0.30976574  0.11498898     0.32300
H136        H  0.53924095  0.26652937  0.07699111     0.34000
H137        H  0.56187660  0.18317621  0.99730992     0.33000
H138        H  0.79847998  0.38108734  0.00397500     0.37000
H139        H  0.72886090  0.38485509  0.45800452     0.29700
H140        H  0.77848091  0.10798238  0.14398168     0.33900
H141        H  0.62774955  0.08834474  0.03073018     0.36800
H142        H  0.65641783  0.31554726  0.12060984     0.29400
H143        H  0.77370928  0.36444663  0.43906768     0.42300
H144        H  0.92140864  0.22714356  0.97523889     0.32300
H145        H  0.90576906  0.28264434  0.05329382     0.39900
H146        H  0.56459521  0.17373243  0.03787206     0.31800
H147        H  0.82871138  0.12573371  0.49371582     0.31800
H148        H  0.74637993  0.09399075  0.11432776     0.32100
Zr149      Zr  0.76245503  0.79634169  0.08607334     2.17500
O150        O  0.74467891  0.86906274  0.09640976    -0.50300
O151        O  0.80504596  0.76821839  0.14046607    -0.73500
O152        O  0.69287490  0.79358166  0.12928829    -0.80200
O153        O  0.88706405  0.83472187  0.03405194    -0.82000
O154        O  0.63078787  0.74701011  0.11752857    -0.77600
O155        O  0.83768302  0.84426026  0.08102655    -0.89200
O156        O  0.82865194  0.69858889  0.14011222    -0.75200
O157        O  0.73301102  0.72319504  0.10018477    -0.84700
O158        O  0.83282160  0.75376384  0.07072271    -0.84400
O159        O  0.68494299  0.79356725  0.05290253    -0.71100
O160        O  0.77722640  0.82172032  0.02494317    -0.83300
Zr161      Zr  0.74168548  0.69856623  0.49013764     2.26400
Zr162      Zr  0.65755628  0.71920598  0.06622068     2.06300
Zr163      Zr  0.84691569  0.77752164  0.00977333     2.10000
Zr164      Zr  0.80321120  0.68089271  0.08474525     1.78800
O165        O  0.87472717  0.83742244  0.46507986    -0.92100
O166        O  0.76411397  0.62532535  0.12994945    -0.39900
O167        O  0.81923887  0.70344084  0.02328434    -0.76500
O168        O  0.72730866  0.67496867  0.05111681    -0.95200
O169        O  0.67180222  0.74314048  0.00534895    -0.88500
O170        O  0.77040509  0.77216920  0.47660562    -0.91400
C171        C  0.82597836  0.73211059  0.15441093     1.02400
C172        C  0.87716833  0.85281113  0.06011312     1.15300
C173        C  0.64923701  0.77326529  0.13558205     1.06100
O174        O  0.62667232  0.65780422  0.10957982    -0.93500
O175        O  0.61486344  0.66518535  0.03917349    -0.89300
O176        O  0.66614827  0.65317036  0.99374290    -0.82400
C177        C  0.62529184  0.64614538  0.01365365     1.12700
O178        O  0.67728282  0.88742178  0.00298868    -0.95500
Zr179      Zr  0.70092186  0.81621302  0.99155594     1.88900
O180        O  0.69733115  0.72812531  0.43664428    -0.72100
O181        O  0.57029400  0.74902483  0.05510957    -0.51400
O182        O  0.60748792  0.82965549  0.98546277    -0.96100
O183        O  0.74007618  0.87229077  0.45008454    -0.53300
O184        O  0.67419350  0.79779400  0.43758284    -0.72700
C185        C  0.67631790  0.76438728  0.42309382     0.99700
O186        O  0.76234839  0.62645031  0.47921857    -0.61500
O187        O  0.93286764  0.74711608  0.02523259    -0.56300
O188        O  0.81093079  0.70050188  0.44650569    -0.93000
O189        O  0.87282045  0.74706843  0.45858641    -0.91400
O190        O  0.89640284  0.66520067  0.08690475    -0.91700
O191        O  0.82161995  0.60795078  0.07539509    -0.90500
C192        C  0.85450378  0.72102300  0.44033432     1.18500
H193        H  0.86406637  0.75761848  0.08318619     0.34500
H194        H  0.71652467  0.64493969  0.05536537     0.45300
H195        H  0.77812866  0.78120811  0.45207358     0.38900
H196        H  0.65818572  0.81176045  0.06033016     0.35300
H197        H  0.79358673  0.61378461  0.14486048     0.27100
H198        H  0.56294001  0.74547580  0.03117654     0.33100
H199        H  0.59197701  0.80277955  0.48201184     0.39000
H200        H  0.90207981  0.65024840  0.11112345     0.33400
H201        H  0.95822385  0.77123025  0.50410815     0.32300
H202        H  0.91081115  0.83033171  0.45842687     0.34000
H203        H  0.75621906  0.85778971  0.43221751     0.33000
H204        H  0.82765952  0.61146032  0.05001693     0.37000
H205        H  0.80056414  0.62328725  0.48220168     0.29700
H206        H  0.74787429  0.86688068  0.12176408     0.33900
H207        H  0.66144286  0.90304061  0.98137332     0.36800
H208        H  0.94489034  0.76193875  0.04371225     0.29400
H209        H  0.75352016  0.60853729  0.99913549     0.42300
H210        H  0.65325674  0.63497634  0.10909785     0.32300
H211        H  0.74261295  0.64152618  0.14441569     0.39900
H212        H  0.77007395  0.88245081  0.46186197     0.31800
H213        H  0.54674784  0.72798495  0.07004952     0.31800
H214        H  0.70696997  0.87382183  0.09201999     0.32100
Zr215      Zr  0.26906531  0.70992179  0.48736224     2.17500
O216        O  0.25878447  0.63988708  0.47033489    -0.50300
O217        O  0.31247394  0.74491483  0.43373174    -0.73500
O218        O  0.19808906  0.71266388  0.44584551    -0.80200
O219        O  0.39367702  0.67434653  0.03702656    -0.82000
O220        O  0.13434638  0.75617709  0.46150581    -0.77600
O221        O  0.34317191  0.65931078  0.49423428    -0.89200
O222        O  0.31718925  0.81700592  0.43424950    -0.75200
O223        O  0.23543343  0.78184519  0.47736358    -0.84700
O224        O  0.33719010  0.75968594  0.99898672    -0.84400
O225        O  0.19473150  0.70514443  0.02045935    -0.71100
O226        O  0.28908768  0.68556700  0.04400450    -0.83300
Zr227      Zr  0.23826972  0.79870101  0.08752080     2.26400
Zr228      Zr  0.15817007  0.77658520  0.01228440     2.06300
Zr229      Zr  0.35268377  0.73379181  0.05912183     2.10000
Zr230      Zr  0.29826782  0.82970924  0.99110654     1.78800
O231        O  0.39851233  0.68047090  0.10119474    -0.92100
O232        O  0.25599915  0.88702604  0.45736457    -0.39900
O233        O  0.31613671  0.80508862  0.05130064    -0.76500
O234        O  0.22143350  0.82567155  0.02723413    -0.95200
O235        O  0.17404961  0.75113805  0.07242217    -0.88500
O236        O  0.27662693  0.72833042  0.09598000    -0.91400
C237        C  0.32268868  0.78438794  0.41946254     1.02400
C238        C  0.38456174  0.65368549  0.01263579     1.15300
C239        C  0.15356831  0.73199302  0.44162306     1.06100
O240        O  0.11210439  0.83368860  0.47336933    -0.93500
O241        O  0.11202452  0.83030511  0.03866585    -0.89300
O242        O  0.15844905  0.84260083  0.08465744    -0.82400
C243        C  0.11959675  0.84962852  0.06408387     1.12700
O244        O  0.19433807  0.60867680  0.07054621    -0.95500
Zr245      Zr  0.21284729  0.68113940  0.08085900     1.88900
O246        O  0.19665785  0.76156823  0.14114725    -0.72100
O247        O  0.07908829  0.73497890  0.03158930    -0.51400
O248        O  0.11966844  0.66552878  0.08954485    -0.96100
O249        O  0.26129145  0.62311404  0.11698938    -0.53300
O250        O  0.19440274  0.68953450  0.13992659    -0.72700
C251        C  0.18731292  0.72179997  0.15503712     0.99700
O252        O  0.25241345  0.86978602  0.10226532    -0.61500
O253        O  0.43362602  0.77161970  0.03811989    -0.56300
O254        O  0.30770213  0.79832208  0.12937050    -0.93000
O255        O  0.37572022  0.76166303  0.11019116    -0.91400
O256        O  0.39134671  0.84637800  0.98492454    -0.91700
O257        O  0.31437925  0.90197827  0.00250780    -0.90500
C258        C  0.35441658  0.78289888  0.13162793     1.18500
H259        H  0.36896130  0.75956797  0.98520894     0.34500
H260        H  0.20737735  0.85464018  0.02406003     0.45300
H261        H  0.28633327  0.71849167  0.11978211     0.38900
H262        H  0.17050517  0.68526969  0.01325117     0.35300
H263        H  0.28277691  0.90146086  0.44044496     0.27100
H264        H  0.05119567  0.75702215  0.03059224     0.33100
H265        H  0.10639090  0.68603120  0.10393843     0.39000
H266        H  0.39800796  0.86011579  0.46042930     0.33400
H267        H  0.45321178  0.77298025  0.05932386     0.32300
H268        H  0.43468821  0.69170188  0.10082423     0.34000
H269        H  0.28310864  0.63781224  0.13172140     0.33000
H270        H  0.28992952  0.90467095  0.02188838     0.37000
H271        H  0.29031020  0.87553809  0.09825496     0.29700
H272        H  0.25920180  0.64616521  0.44463976     0.33900
H273        H  0.17549607  0.59353934  0.09174079     0.36800
H274        H  0.45356101  0.75091017  0.02683058     0.29400
H275        H  0.23607399  0.89092649  0.08357244     0.42300
H276        H  0.13687536  0.85825096  0.46706733     0.32300
H277        H  0.23206610  0.87312147  0.44333257     0.39900
H278        H  0.28666844  0.61297063  0.10088707     0.31800
H279        H  0.07114545  0.71948489  0.01263598     0.31800
H280        H  0.22243956  0.63079430  0.47729640     0.32100
N281        N  0.99082447  0.27755921  0.22907379    -0.35500
N282        N  0.06315356  0.26724903  0.28596643    -0.56100
N283        N  0.97582957  0.28190712  0.33085133    -0.35500
N284        N  0.90403738  0.29731863  0.27319458    -0.56100
C285        C  0.03715330  0.27862012  0.21149783     0.28100
C286        C  0.95364641  0.29060768  0.20540250     0.28100
C287        C  0.01627879  0.28143343  0.35263960     0.28100
C288        C  0.93401168  0.29902450  0.34519093     0.28100
C289        C  0.09529931  0.25530853  0.26165649     0.36700
C290        C  0.08596608  0.25410221  0.31690519     0.36700
C291        C  0.87675718  0.29182184  0.24528294     0.36700
C292        C  0.86882689  0.29635313  0.29959133     0.36700
C293        C  0.02913318  0.29275848  0.17629509    -0.20800
C294        C  0.97654571  0.30033347  0.17248193    -0.20800
C295        C  0.99964316  0.29860020  0.38109178    -0.20800
C296        C  0.94827477  0.31020914  0.37611962    -0.20800
C297        C  0.13963026  0.23561980  0.27702746    -0.21900
C298        C  0.13369158  0.23478089  0.31208702    -0.21900
C299        C  0.82380015  0.28863368  0.25369963    -0.21900
C300        C  0.81877047  0.29153835  0.28817326    -0.21900
C301        C  0.08548659  0.26303381  0.22573645    -0.17200
C302        C  0.89910560  0.29034751  0.21224688    -0.17200
C303        C  0.88166651  0.29925823  0.33386658    -0.17200
C304        C  0.06606442  0.26230657  0.34894220    -0.17200
H305        H  0.05793501  0.29631772  0.15531832     0.15700
H306        H  0.95719644  0.31100445  0.14811007     0.15700
H307        H  0.02118093  0.30159700  0.40381963     0.15700
H308        H  0.92350294  0.32364651  0.39410345     0.15700
H309        H  0.17274576  0.22322689  0.26433389     0.14000
H310        H  0.16162657  0.22191536  0.33168507     0.14000
H311        H  0.79219479  0.28415622  0.23688980     0.14000
H312        H  0.78257479  0.28960656  0.30322359     0.14000
H313        H  0.98374269  0.26293320  0.25477564     0.27200
H314        H  0.97461772  0.26541865  0.31041109     0.27200
N315        N  0.00616295  0.71205473  0.24314611    -0.35500
N316        N  0.08609390  0.71298753  0.29534239    -0.56100
N317        N  0.00490322  0.69678250  0.34707956    -0.35500
N318        N  0.92498600  0.69247905  0.29570420    -0.56100
C319        C  0.05069839  0.71365288  0.22371429     0.28100
C320        C  0.96707933  0.69977299  0.22434611     0.28100
C321        C  0.04777068  0.68717604  0.36665835     0.28100
C322        C  0.96350497  0.67855377  0.36632521     0.28100
C323        C  0.11393745  0.73089275  0.26661022     0.36700
C324        C  0.11408906  0.71914697  0.32274779     0.36700
C325        C  0.89463435  0.69967081  0.26748472     0.36700
C326        C  0.89359223  0.69486035  0.32336537     0.36700
C327        C  0.03967742  0.70248538  0.19209136    -0.20800
C328        C  0.98717920  0.69343461  0.19261911    -0.20800
C329        C  0.03352289  0.66165394  0.39836896    -0.20800
C330        C  0.98022149  0.65626736  0.39817634    -0.20800
C331        C  0.16039373  0.74790272  0.27574151    -0.21900
C332        C  0.16047888  0.74044164  0.31143393    -0.21900
C333        C  0.84317701  0.70556789  0.27732502    -0.21900
C334        C  0.84261348  0.70311774  0.31279460    -0.21900
C335        C  0.09989188  0.72863229  0.23252123    -0.17200
C336        C  0.91311514  0.69862607  0.23346370    -0.17200
C337        C  0.91070099  0.68750468  0.35793454    -0.17200
C338        C  0.09832540  0.70451355  0.35767335    -0.17200
H339        H  0.06618028  0.70177376  0.17036295     0.15700
H340        H  0.96601473  0.68466107  0.17144704     0.15700
H341        H  0.05868374  0.64927655  0.41978185     0.15700
H342        H  0.95611961  0.63929782  0.41951392     0.15700
H343        H  0.19125338  0.76355494  0.25851311     0.14000
H344        H  0.19113162  0.74959163  0.32714519     0.14000
H345        H  0.80968475  0.71122318  0.26074718     0.14000
H346        H  0.80847892  0.70628203  0.32889832     0.14000
H347        H  0.00191767  0.72423312  0.26581145     0.27200
H348        H  0.00254020  0.72015286  0.32445453     0.27200
N349        N  0.50249931  0.80919577  0.22786969    -0.35500
N350        N  0.58366925  0.80932449  0.27915549    -0.56100
N351        N  0.50197055  0.79115510  0.33136890    -0.35500
N352        N  0.42077508  0.79635302  0.27909401    -0.56100
C353        C  0.54540608  0.82405831  0.20872501     0.28100
C354        C  0.46050471  0.82254962  0.20831949     0.28100
C355        C  0.54153248  0.80226457  0.35035720     0.28100
C356        C  0.45762767  0.79020132  0.35084652     0.28100
C357        C  0.61390125  0.80320644  0.25191107     0.36700
C358        C  0.61348188  0.79997543  0.30755995     0.36700
C359        C  0.39202638  0.79283676  0.25134643     0.36700
C360        C  0.39273263  0.77755059  0.30743996     0.36700
C361        C  0.53079246  0.84805028  0.17697604    -0.20800
C362        C  0.47704259  0.84747658  0.17684415    -0.20800
C363        C  0.52192622  0.80868068  0.38215520    -0.20800
C364        C  0.46922213  0.80061416  0.38265047    -0.20800
C365        C  0.66368040  0.79056983  0.26292498    -0.21900
C366        C  0.66360694  0.78919668  0.29826126    -0.21900
C367        C  0.34475753  0.77265473  0.26211204    -0.21900
C368        C  0.34519518  0.76295873  0.29780451    -0.21900
C369        C  0.59690159  0.81070867  0.21733334    -0.17200
C370        C  0.40863675  0.80790041  0.21664041    -0.17200
C371        C  0.40792455  0.77667745  0.34178401    -0.17200
C372        C  0.59539375  0.80181162  0.34146387    -0.17200
H373        H  0.55635909  0.86304596  0.15570837     0.15700
H374        H  0.45298214  0.86211023  0.15543747     0.15700
H375        H  0.54359186  0.81672696  0.40340035     0.15700
H376        H  0.44292160  0.80161198  0.40442650     0.15700
H377        H  0.69664518  0.78336356  0.24724366     0.14000
H378        H  0.69619695  0.78027159  0.31522729     0.14000
H379        H  0.31351479  0.76529911  0.24606038     0.14000
H380        H  0.31403253  0.74721298  0.31471243     0.14000
H381        H  0.50277542  0.78523051  0.25021731     0.27200
H382        H  0.50552458  0.77918112  0.30856430     0.27200
N383        N  0.49893336  0.16726350  0.24711214    -0.35500
N384        N  0.57360147  0.16865513  0.30030578    -0.56100
N385        N  0.48474364  0.17712246  0.34673916    -0.35500
N386        N  0.41000380  0.17163327  0.29395553    -0.56100
C387        C  0.54262635  0.15294663  0.23275898     0.28100
C388        C  0.45800892  0.15827134  0.22848786     0.28100
C389        C  0.52517265  0.16980066  0.36871200     0.28100
C390        C  0.44023226  0.16676191  0.36598798     0.28100
C391        C  0.60751381  0.17219616  0.27296749     0.36700
C392        C  0.59952677  0.18124515  0.32622097     0.36700
C393        C  0.38554748  0.18186180  0.26337862     0.36700
C394        C  0.37671084  0.18130790  0.31856580     0.36700
C395        C  0.52897134  0.13359558  0.20533840    -0.20800
C396        C  0.47564061  0.13731665  0.20243061    -0.20800
C397        C  0.50637529  0.15417867  0.40215560    -0.20800
C398        C  0.45289904  0.15177769  0.40037969    -0.20800
C399        C  0.65577620  0.18620128  0.28176369    -0.21900
C400        C  0.65074486  0.19184550  0.31566686    -0.21900
C401        C  0.33581818  0.19744814  0.26858442    -0.21900
C402        C  0.33016229  0.19699287  0.30371679    -0.21900
C403        C  0.59469613  0.16262697  0.24046174    -0.17200
C404        C  0.40660848  0.17367647  0.23168789    -0.17200
C405        C  0.38848876  0.17551572  0.35412850    -0.17200
C406        C  0.57809430  0.18025227  0.35981712    -0.17200
H407        H  0.55507983  0.11995375  0.18821258     0.15700
H408        H  0.45270533  0.12693986  0.18270519     0.15700
H409        H  0.52884171  0.14589160  0.42550945     0.15700
H410        H  0.42620111  0.14149079  0.42218315     0.15700
H411        H  0.69077170  0.19185533  0.26550502     0.14000
H412        H  0.68125275  0.20233272  0.33082818     0.14000
H413        H  0.30653631  0.20751945  0.24924499     0.14000
H414        H  0.29599963  0.20727523  0.31674150     0.14000
H415        H  0.49772670  0.18825656  0.26459939     0.27200
H416        H  0.48725018  0.19402579  0.32122993     0.27200
C417        C  0.38761452  0.78881033  0.16056942    -0.15400
C418        C  0.37176830  0.80577843  0.18800116    -0.30500
H419        H  0.42749650  0.77695117  0.15973949     0.13700
H420        H  0.33116529  0.81501303  0.19067121     0.14200
C421        C  0.36913079  0.76336263  0.37012383    -0.15400
C422        C  0.34506405  0.79380818  0.38417637    -0.30500
H423        H  0.36745596  0.72941767  0.38268984     0.13700
H424        H  0.34989481  0.82768681  0.37177232     0.14200
C425        C  0.16404049  0.71179016  0.19019694    -0.15400
C426        C  0.13878139  0.74191767  0.20409650    -0.30500
H427        H  0.15995005  0.67785667  0.20259019     0.13700
H428        H  0.14018471  0.77587916  0.19156234     0.14200
C429        C  0.12011408  0.72630902  0.41265440    -0.15400
C430        C  0.13551225  0.70809230  0.38580536    -0.30500
H431        H  0.08040409  0.73865910  0.41317173     0.13700
H432        H  0.17594813  0.69831014  0.38334196     0.14200
C433        C  0.65098298  0.76622242  0.38918180    -0.15400
C434        C  0.63322201  0.80304236  0.36958112    -0.30500
H435        H  0.64359458  0.73566953  0.38105848     0.13700
H436        H  0.63917188  0.83381799  0.37761957     0.14200
C437        C  0.61679643  0.78075713  0.16523347    -0.15400
C438        C  0.63311156  0.80332170  0.18890211    -0.30500
H439        H  0.57751971  0.76718276  0.16770205     0.13700
H440        H  0.67319288  0.81481099  0.18815966     0.14200
C441        C  0.87331495  0.69147327  0.38677143    -0.15400
C442        C  0.88701906  0.71518374  0.41027883    -0.30500
H443        H  0.83482242  0.67671046  0.38796437     0.13700
H444        H  0.92461288  0.73174643  0.40716615     0.14200
C445        C  0.85074244  0.73057299  0.18847696    -0.15400
C446        C  0.87552880  0.69536077  0.20560884    -0.30500
H447        H  0.85275300  0.76056322  0.19830292     0.13700
H448        H  0.87570615  0.66565179  0.19534121     0.14200
C449        C  0.63521597  0.16730490  0.21164988    -0.15400
C450        C  0.62457577  0.19401339  0.18152784    -0.30500
H451        H  0.67229286  0.15037284  0.21531158     0.13700
H452        H  0.58802192  0.21198739  0.18057112     0.14200
C453        C  0.61600570  0.22469060  0.39854409    -0.15400
C454        C  0.61289869  0.18636463  0.38814651    -0.30500
H455        H  0.59746370  0.25314798  0.38352583     0.13700
H456        H  0.63217048  0.15785062  0.40249555     0.14200
C457        C  0.86420172  0.28867373  0.18275711    -0.15400
C458        C  0.86330249  0.25325162  0.16824651    -0.30500
H459        H  0.84039961  0.31674356  0.17269137     0.13700
H460        H  0.88473658  0.22455416  0.18022469     0.14200
C461        C  0.83885996  0.26510345  0.38824316    -0.15400
C462        C  0.83914374  0.29824872  0.36092125    -0.30500
H463        H  0.86628113  0.23878234  0.38724607     0.13700
H464        H  0.81301895  0.32567004  0.36009330     0.14200
C465        C  0.35545242  0.21029792  0.40089541    -0.15400
C466        C  0.34667587  0.18169738  0.38024990    -0.30500
H467        H  0.39113340  0.22951336  0.39572095     0.13700
H468        H  0.31079098  0.16288551  0.38274381     0.14200
C469        C  0.36872901  0.22076952  0.18095472    -0.15400
C470        C  0.37460318  0.18075458  0.20010342    -0.30500
H471        H  0.38180718  0.24868640  0.19105836     0.13700
H472        H  0.36228157  0.15251698  0.19017507     0.14200
C473        C  0.09911130  0.25027505  0.38016789    -0.15400
C474        C  0.11860352  0.28073107  0.39600029    -0.30500
H475        H  0.10693812  0.21620524  0.39002797     0.13700
H476        H  0.11108608  0.31459563  0.38494555     0.14200
C477        C  0.15872249  0.27853312  0.18258148    -0.15400
C478        C  0.12487263  0.24999937  0.20130599    -0.30500
H479        H  0.16437532  0.30998339  0.18954914     0.13700
H480        H  0.11882255  0.21866725  0.19420973     0.14200
C481        C  0.90822526  0.09940501  0.07213139    -0.12200
C482        C  0.93906697  0.07010615  0.07169813    -0.13800
C483        C  0.05307162  0.07366851  0.05065991    -0.12200
C484        C  0.08213100  0.10461383  0.04334538    -0.13800
C485        C  0.05552824  0.91497345  0.06800841    -0.12200
C486        C  0.08340100  0.88373671  0.06809296    -0.13800
C487        C  0.94046226  0.91517091  0.07012562    -0.12200
C488        C  0.91264220  0.88568708  0.06617175    -0.13800
C489        C  0.55525218  0.42775344  0.00297854    -0.12200
C490        C  0.58066870  0.39547020  0.00125280    -0.13800
C491        C  0.41652866  0.39514094  0.03537757    -0.12200
C492        C  0.44454998  0.42658964  0.02766942    -0.13800
C493        C  0.41837663  0.61736663  0.01005039    -0.12200
C494        C  0.44522881  0.58545834  0.01010763    -0.13800
C495        C  0.56057104  0.58387036  0.00453629    -0.12200
C496        C  0.58913196  0.61346898  0.00755031    -0.13800
C497        C  0.47267324  0.54367975  0.51105286     0.03400
C498        C  0.52918318  0.54550554  0.00472342     0.03300
C499        C  0.55467339  0.50654078  0.00188756    -0.17200
C500        C  0.52721703  0.46703366  0.00707360     0.03400
C501        C  0.47247438  0.46471913  0.51571507     0.03300
C502        C  0.44604858  0.50378534  0.51684410    -0.17200
H503        H  0.40441296  0.50303575  0.52286028     0.05400
H504        H  0.59642333  0.50682866  0.99637348     0.05400
C505        C  0.97062292  0.95332301  0.57177069     0.03400
C506        C  0.02511973  0.95651551  0.56597144     0.03300
C507        C  0.04904500  0.99745426  0.55930973    -0.18000
C508        C  0.02005598  0.03516521  0.56036479     0.03400
C509        C  0.96676966  0.03130958  0.57120167     0.03300
C510        C  0.94229500  0.99049416  0.57568768    -0.17200
H511        H  0.90063444  0.98781055  0.58148461     0.05400
H512        H  0.09053456  0.00002473  0.55283348     0.05400
Zr513      Zr  0.22174361  0.20070059  0.99252306     2.17500
O514        O  0.23453166  0.13255260  0.97254719    -0.50300
O515        O  0.16466078  0.23138240  0.94522770    -0.73500
O516        O  0.14349626  0.15032709  0.51025156    -0.80200
O517        O  0.34215927  0.25391718  0.94453532    -0.82000
O518        O  0.10829985  0.16645332  0.56002807    -0.77600
O519        O  0.28282834  0.20047479  0.94309610    -0.89200
O520        O  0.14018954  0.29879488  0.95239379    -0.75200
O521        O  0.15698700  0.24428654  0.51462059    -0.84700
O522        O  0.24298318  0.27590615  0.97579660    -0.84400
O523        O  0.22152675  0.17603921  0.55228064    -0.71100
O524        O  0.30385568  0.20296467  0.51376914    -0.83300
Zr525      Zr  0.27476639  0.29859617  0.58233760     2.26400
Zr526      Zr  0.16152452  0.22190787  0.57634674     2.06300
Zr527      Zr  0.33142983  0.27687610  0.49733649     2.10000
Zr528      Zr  0.18651104  0.31721773  0.49769865     1.78800
O529        O  0.42109627  0.25069433  0.50150850    -0.92100
O530        O  0.09263559  0.32885012  0.50263227    -0.39900
O531        O  0.27141501  0.32245441  0.52070075    -0.76500
O532        O  0.18823507  0.29597969  0.55974134    -0.95200
O533        O  0.24608839  0.22545256  0.59935439    -0.88500
O534        O  0.33598675  0.25411554  0.55868435    -0.91400
C535        C  0.14032266  0.26739947  0.93582079     1.02400
C536        C  0.32285825  0.22386030  0.93085187     1.15300
C537        C  0.11027706  0.14423844  0.53604603     1.06100
O538        O  0.07533110  0.25520970  0.57421810    -0.93500
O539        O  0.15702615  0.24402902  0.63221171    -0.89300
O540        O  0.21704987  0.29708734  0.63301781    -0.82400
C541        C  0.17893998  0.27253294  0.64661031     1.12700
O542        O  0.33269763  0.11166427  0.56207486    -0.95500
Zr543      Zr  0.30634498  0.18118677  0.57586037     1.88900
O544        O  0.32608380  0.26685663  0.63225724    -0.72100
O545        O  0.13739756  0.16480487  0.62562073    -0.51400
O546        O  0.26864095  0.12026487  0.61695746    -0.96100
O547        O  0.40064669  0.16935974  0.57569070    -0.53300
O548        O  0.33140506  0.19456071  0.63238271    -0.72700
C549        C  0.33777620  0.22779701  0.64648518     0.99700
O550        O  0.26092156  0.37065254  0.59558017    -0.61500
O551        O  0.33825752  0.34598700  0.94799253    -0.56300
O552        O  0.34974819  0.34761480  0.56437015    -0.93000
O553        O  0.37913872  0.33685702  0.51150444    -0.91400
O554        O  0.20350617  0.37480784  0.95710587    -0.91700
O555        O  0.16596066  0.38858739  0.50985959    -0.90500
C556        C  0.37962340  0.35668706  0.53700843     1.18500
H557        H  0.24257843  0.28553106  0.95090068     0.34500
H558        H  0.16484397  0.31427376  0.57014388     0.45300
H559        H  0.37077766  0.25779718  0.56661560     0.38900
H560        H  0.21059099  0.14614810  0.55864883     0.35300
H561        H  0.07423312  0.34079524  0.99534305     0.27100
H562        H  0.09871206  0.16339729  0.62606799     0.33100
H563        H  0.29623631  0.11112552  0.63408639     0.39000
H564        H  0.24011714  0.38199779  0.96137724     0.33400
H565        H  0.37507986  0.34487548  0.93986571     0.32300
H566        H  0.42188244  0.23436652  0.00908477     0.34000
H567        H  0.41512493  0.18905241  0.58996393     0.33000
H568        H  0.19397119  0.39434233  0.52534800     0.37000
H569        H  0.27043346  0.39129449  0.57395019     0.29700
H570        H  0.20212589  0.12799642  0.96041993     0.33900
H571        H  0.35084676  0.09590958  0.58273833     0.36800
H572        H  0.31753304  0.33855762  0.92898444     0.29400
H573        H  0.22250703  0.37374821  0.59755032     0.42300
H574        H  0.05470200  0.23646305  0.59289795     0.32300
H575        H  0.07637255  0.30249506  0.49714309     0.39900
H576        H  0.41272351  0.18161122  0.55169764     0.31800
H577        H  0.14915692  0.13730287  0.61920973     0.31800
H578        H  0.22162316  0.10829323  0.49227577     0.32100
Zr579      Zr  0.75551766  0.18472731  0.59789688     2.17500
O580        O  0.73559099  0.11312305  0.63215058    -0.50300
O581        O  0.80709901  0.21093299  0.64076792    -0.73500
O582        O  0.83087178  0.13538906  0.59489474    -0.80200
O583        O  0.62730832  0.23123137  0.62414479    -0.82000
O584        O  0.87359011  0.15748292  0.54290781    -0.77600
O585        O  0.69061709  0.18303400  0.64561521    -0.89200
O586        O  0.82382228  0.28274214  0.62147896    -0.75200
O587        O  0.82124268  0.22908676  0.56466229    -0.84700
O588        O  0.72979735  0.25841861  0.59440700    -0.84400
O589        O  0.75652977  0.16503594  0.54163742    -0.71100
O590        O  0.67202745  0.19264242  0.57013708    -0.83300
Zr591      Zr  0.70693001  0.29224624  0.97412942     2.26400
Zr592      Zr  0.82075734  0.21164798  0.50819753     2.06300
Zr593      Zr  0.64842994  0.26713584  0.56575497     2.10000
Zr594      Zr  0.79531093  0.30227981  0.56145357     1.78800
O595        O  0.55671133  0.24746588  0.56375505    -0.92100
O596        O  0.89018837  0.30920859  0.55662840    -0.39900
O597        O  0.71362628  0.31176530  0.53233073    -0.76500
O598        O  0.79684742  0.28600189  0.50389207    -0.95200
O599        O  0.73242454  0.21871875  0.97742319    -0.88500
O600        O  0.64763746  0.24854575  0.50970761    -0.91400
C601        C  0.82536628  0.24767426  0.64459199     1.02400
C602        C  0.64718936  0.20322214  0.64836031     1.15300
C603        C  0.86801599  0.13250781  0.57251451     1.06100
O604        O  0.90801096  0.24344015  0.50073655    -0.93500
O605        O  0.81975952  0.23352163  0.93879858    -0.89300
O606        O  0.76161728  0.28818174  0.92237493    -0.82400
C607        C  0.79840386  0.26258376  0.91594156     1.12700
O608        O  0.64943881  0.10263723  0.54422559    -0.95500
Zr609      Zr  0.67418984  0.17501939  0.51341439     1.88900
O610        O  0.64724722  0.26518080  0.93559379    -0.72100
O611        O  0.83899920  0.15293020  0.97057149    -0.51400
O612        O  0.70561788  0.11669327  0.98579687    -0.96100
O613        O  0.57968837  0.16451189  0.51755986    -0.53300
O614        O  0.64342491  0.19193902  0.95364597    -0.72700
C615        C  0.63463495  0.22688497  0.93164466     0.99700
O616        O  0.72551038  0.36412776  0.93944265    -0.61500
O617        O  0.63152287  0.32251635  0.60034202    -0.56300
O618        O  0.63979849  0.34736294  0.98039988    -0.93000
O619        O  0.60907153  0.33266385  0.53513824    -0.91400
O620        O  0.75852534  0.36038664  0.58751397    -0.91700
O621        O  0.82221306  0.37497747  0.53309783    -0.90500
C622        C  0.61294358  0.35593907  0.50468628     1.18500
H623        H  0.72573045  0.26548540  0.61716156     0.34500
H624        H  0.81748253  0.30403938  0.98238758     0.45300
H625        H  0.61370579  0.25391493  0.49959098     0.38900
H626        H  0.76669606  0.13505582  0.54360904     0.35300
H627        H  0.89904669  0.32976362  0.57181610     0.27100
H628        H  0.87768787  0.15199021  0.96948209     0.33100
H629        H  0.72430695  0.13195367  0.96459145     0.39000
H630        H  0.76090496  0.35011508  0.61288394     0.33400
H631        H  0.59415698  0.31896040  0.60743141     0.32300
H632        H  0.53913149  0.26053092  0.58197120     0.34000
H633        H  0.56503994  0.18786806  0.49978954     0.33000
H634        H  0.79922761  0.38221634  0.51286734     0.37000
H635        H  0.72555289  0.38373796  0.95637685     0.29700
H636        H  0.76263429  0.10789495  0.65010186     0.33900
H637        H  0.63034730  0.08927472  0.52730546     0.36800
H638        H  0.65071162  0.31320063  0.62210177     0.29400
H639        H  0.76263597  0.36363455  0.93185247     0.42300
H640        H  0.92735471  0.22608038  0.48608325     0.32300
H641        H  0.90365995  0.28097268  0.56891682     0.39900
H642        H  0.56915932  0.17220810  0.54000757     0.31800
H643        H  0.82836033  0.12569065  0.98636912     0.31800
H644        H  0.74388022  0.09254438  0.61663991     0.32100
Zr645      Zr  0.76561668  0.79270351  0.58741909     2.17500
O646        O  0.74576309  0.86415300  0.59995600    -0.50300
O647        O  0.81089628  0.76325376  0.64093359    -0.73500
O648        O  0.69705908  0.78827174  0.63129622    -0.80200
O649        O  0.89027256  0.83079156  0.53552939    -0.82000
O650        O  0.63338327  0.74330872  0.61928055    -0.77600
O651        O  0.83996409  0.84192927  0.58162866    -0.89200
O652        O  0.83054716  0.69285677  0.64050684    -0.75200
O653        O  0.73607751  0.71949770  0.60086090    -0.84700
O654        O  0.83535994  0.75074574  0.57054553    -0.84400
O655        O  0.68718866  0.79065030  0.55477414    -0.71100
O656        O  0.77783819  0.81937269  0.52614237    -0.83300
Zr657      Zr  0.74209684  0.70055697  0.98987669     2.26400
Zr658      Zr  0.65949410  0.71632182  0.56757049     2.06300
Zr659      Zr  0.84714637  0.77590751  0.50950975     2.10000
Zr660      Zr  0.80602808  0.67775144  0.58415573     1.78800
O661        O  0.88080965  0.83592287  0.96473694    -0.92100
O662        O  0.76998419  0.61903757  0.62810450    -0.39900
O663        O  0.81986152  0.70153322  0.52265939    -0.76500
O664        O  0.72875754  0.67220856  0.55150853    -0.95200
O665        O  0.67179881  0.74094204  0.50655812    -0.88500
O666        O  0.77102929  0.77392216  0.97617552    -0.91400
C667        C  0.82989621  0.72628282  0.65494272     1.02400
C668        C  0.88009683  0.84975849  0.56114542     1.15300
C669        C  0.65288046  0.76888226  0.63748945     1.06100
O670        O  0.62734812  0.65541165  0.61087030    -0.93500
O671        O  0.61515586  0.66291423  0.54065426    -0.89300
O672        O  0.66436064  0.65236304  0.49393002    -0.82400
C673        C  0.62421988  0.64474267  0.51447300     1.12700
O674        O  0.67685642  0.88589589  0.50362123    -0.95500
Zr675      Zr  0.70069501  0.81419573  0.49320988     1.88900
O676        O  0.69602250  0.72807743  0.93673824    -0.72100
O677        O  0.57243597  0.74702152  0.55752537    -0.51400
O678        O  0.60661474  0.82668038  0.49198394    -0.96100
O679        O  0.74330195  0.87212388  0.94803949    -0.53300
O680        O  0.67507132  0.79848422  0.93647135    -0.72700
C681        C  0.67608922  0.76455990  0.92265563     0.99700
O682        O  0.76891246  0.62956542  0.97944264    -0.61500
O683        O  0.93587790  0.74828820  0.51799727    -0.56300
O684        O  0.81023413  0.70492547  0.94539370    -0.93000
O685        O  0.87398181  0.74882209  0.95903627    -0.91400
O686        O  0.90023376  0.66660727  0.58517948    -0.91700
O687        O  0.82893398  0.60637937  0.57300823    -0.90500
C688        C  0.85465220  0.72422649  0.93994724     1.18500
H689        H  0.86696673  0.75445188  0.58266236     0.34500
H690        H  0.71778831  0.64222139  0.55571349     0.45300
H691        H  0.77917583  0.78289797  0.95169555     0.38900
H692        H  0.66067850  0.80866353  0.56269873     0.35300
H693        H  0.80067617  0.60578444  0.64095738     0.27100
H694        H  0.56473789  0.74451184  0.53341279     0.33100
H695        H  0.59366123  0.82768191  0.00946418     0.39000
H696        H  0.90653631  0.64781223  0.60800246     0.33400
H697        H  0.95579722  0.75868548  0.00492188     0.32300
H698        H  0.91805655  0.82862748  0.96159246     0.34000
H699        H  0.75080074  0.85825574  0.92786720     0.33000
H700        H  0.81693379  0.60664321  0.54919948     0.37000
H701        H  0.80694085  0.62804281  0.98367860     0.29700
H702        H  0.74530878  0.86056845  0.62557039     0.33900
H703        H  0.65896157  0.90053775  0.48246707     0.36800
H704        H  0.94352995  0.74939695  0.54239811     0.29400
H705        H  0.74725651  0.60598121  0.49938347     0.42300
H706        H  0.65763757  0.64644551  0.62576535     0.32300
H707        H  0.75097473  0.63369544  0.64481347     0.39900
H708        H  0.77807805  0.87609237  0.95750704     0.31800
H709        H  0.54888163  0.72559936  0.57207351     0.31800
H710        H  0.70890266  0.86966629  0.59332901     0.32100
Zr711      Zr  0.27247047  0.71236371  0.98394603     2.17500
O712        O  0.27002248  0.64343128  0.96429962    -0.50300
O713        O  0.31387349  0.75036188  0.93060949    -0.73500
O714        O  0.20093290  0.70995768  0.94393785    -0.80200
O715        O  0.38959724  0.67019552  0.54059924    -0.82000
O716        O  0.13536265  0.75179071  0.95958079    -0.77600
O717        O  0.34669070  0.66204147  0.99136526    -0.89200
O718        O  0.31585700  0.82223754  0.93205549    -0.75200
O719        O  0.23432737  0.78283879  0.97524437    -0.84700
O720        O  0.33597404  0.75525977  0.50243171    -0.84400
O721        O  0.19120875  0.70654725  0.52354409    -0.71100
O722        O  0.28400763  0.68370579  0.54786826    -0.83300
Zr723      Zr  0.23948566  0.80080978  0.58884038     2.26400
Zr724      Zr  0.15922208  0.77941364  0.51390159     2.06300
Zr725      Zr  0.34998892  0.73017442  0.56277166     2.10000
Zr726      Zr  0.30156630  0.82685139  0.49292375     1.78800
O727        O  0.39445798  0.67713459  0.60583061    -0.92100
O728        O  0.25493089  0.88946628  0.95343134    -0.39900
O729        O  0.31771655  0.80287731  0.55335594    -0.76500
O730        O  0.22457746  0.82717358  0.52831410    -0.95200
O731        O  0.17303376  0.75482440  0.57426656    -0.88500
O732        O  0.27363650  0.72884211  0.59926640    -0.91400
C733        C  0.32282668  0.79019246  0.91683131     1.02400
C734        C  0.38080012  0.65031880  0.51567596     1.15300
C735        C  0.15549235  0.72757821  0.93988822     1.06100
O736        O  0.11008452  0.83145622  0.97298766    -0.93500
O737        O  0.11487436  0.83487020  0.53831657    -0.89300
O738        O  0.16175301  0.84732946  0.58401252    -0.82400
C739        C  0.12305093  0.85452400  0.56334122     1.12700
O740        O  0.19245971  0.60910492  0.57716960    -0.95500
Zr741      Zr  0.20779875  0.68334516  0.58438705     1.88900
O742        O  0.19407592  0.76827711  0.64229144    -0.72100
O743        O  0.07949419  0.73967225  0.53464202    -0.51400
O744        O  0.11618532  0.66141437  0.59117292    -0.96100
O745        O  0.25901502  0.63075272  0.62380802    -0.53300
O746        O  0.18038409  0.69718004  0.64092219    -0.72700
C747        C  0.17780981  0.73009666  0.65583619     0.99700
O748        O  0.25817161  0.87120895  0.60358425    -0.61500
O749        O  0.43257813  0.76511781  0.54163585    -0.56300
O750        O  0.30966763  0.80000587  0.63010458    -0.93000
O751        O  0.37510271  0.75915437  0.61280984    -0.91400
O752        O  0.39494452  0.84077769  0.48349135    -0.91700
O753        O  0.32771259  0.89748268  0.50364337    -0.90500
C754        C  0.35537792  0.78271561  0.63307189     1.18500
H755        H  0.36771653  0.75360577  0.48894145     0.34500
H756        H  0.21209540  0.85665394  0.52452937     0.45300
H757        H  0.28229087  0.71943185  0.62336032     0.38900
H758        H  0.16585447  0.68745640  0.51644658     0.35300
H759        H  0.28170160  0.90171451  0.93562378     0.27100
H760        H  0.05146771  0.76166826  0.53024236     0.33100
H761        H  0.09835162  0.68452086  0.60093440     0.39000
H762        H  0.39567173  0.86445281  0.96142207     0.33400
H763        H  0.45394540  0.76297836  0.56258021     0.32300
H764        H  0.43164336  0.68614230  0.60362451     0.34000
H765        H  0.25646035  0.63995225  0.64650939     0.33000
H766        H  0.30885456  0.90020619  0.52541700     0.37000
H767        H  0.29568697  0.87662064  0.59756809     0.29700
H768        H  0.26887285  0.65088699  0.93865762     0.33900
H769        H  0.17917312  0.59338265  0.60003117     0.36800
H770        H  0.44965877  0.74510362  0.52822208     0.29400
H771        H  0.24019352  0.89293886  0.58615898     0.42300
H772        H  0.13628835  0.85430065  0.96420203     0.32300
H773        H  0.22932112  0.87533888  0.94068804     0.39900
H774        H  0.29575266  0.63680889  0.61593898     0.31800
H775        H  0.07340552  0.72051598  0.51785789     0.31800
H776        H  0.23525725  0.63086906  0.97191626     0.32100
N777        N  0.99650932  0.27073914  0.73148259    -0.35500
N778        N  0.07007229  0.25630994  0.78803568    -0.56100
N779        N  0.98550731  0.27509310  0.83438071    -0.35500
N780        N  0.91158234  0.28701099  0.77825234    -0.56100
C781        C  0.03904259  0.25753867  0.71513282     0.28100
C782        C  0.95534500  0.27058096  0.71039318     0.28100
C783        C  0.02200163  0.25750889  0.85740174     0.28100
C784        C  0.93945554  0.27477108  0.85230050     0.28100
C785        C  0.10469786  0.25590566  0.76155624     0.36700
C786        C  0.09821238  0.25534223  0.81684138     0.36700
C787        C  0.88492656  0.29407127  0.74837633     0.36700
C788        C  0.87948086  0.29789459  0.80304219     0.36700
C789        C  0.02487568  0.24960024  0.68307396    -0.20800
C790        C  0.97254944  0.25801753  0.67999440    -0.20800
C791        C  0.99865484  0.24564173  0.89009337    -0.20800
C792        C  0.94705219  0.25703877  0.88697700    -0.20800
C793        C  0.15526013  0.25400261  0.77364920    -0.21900
C794        C  0.15118237  0.25373030  0.80870897    -0.21900
C795        C  0.83531405  0.30943422  0.75427911    -0.21900
C796        C  0.83196053  0.31203341  0.78889128    -0.21900
C797        C  0.09101502  0.25452454  0.72713084    -0.17200
C798        C  0.90318665  0.28344784  0.71668522    -0.17200
C799        C  0.89084291  0.29108402  0.83876079    -0.17200
C800        C  0.07648807  0.25423111  0.85048160    -0.17200
H801        H  0.04975022  0.23945323  0.66345981     0.15700
H802        H  0.95037573  0.25591675  0.65729227     0.15700
H803        H  0.01688006  0.23050880  0.91397272     0.15700
H804        H  0.91842038  0.25243786  0.90803384     0.15700
H805        H  0.19123917  0.25257394  0.75884801     0.14000
H806        H  0.18352673  0.25223737  0.82616384     0.14000
H807        H  0.80433706  0.31698849  0.73579860     0.14000
H808        H  0.79786917  0.32172198  0.80233458     0.14000
H809        H  0.99670643  0.28294492  0.75410801     0.27200
H810        H  0.99285957  0.29107447  0.80903103     0.27200
N811        N  0.00533341  0.68232003  0.74793943    -0.35500
N812        N  0.08699770  0.68274535  0.79966154    -0.56100
N813        N  0.00514678  0.68702440  0.84911791    -0.35500
N814        N  0.92339091  0.68428835  0.79803692    -0.56100
C815        C  0.04859068  0.67230652  0.73067409     0.28100
C816        C  0.96332831  0.67453831  0.72953846     0.28100
C817        C  0.04693391  0.67713813  0.86971811     0.28100
C818        C  0.96201676  0.67478554  0.86902711     0.28100
C819        C  0.11681864  0.69003196  0.77034714     0.36700
C820        C  0.11649303  0.69314075  0.82502277     0.36700
C821        C  0.89359857  0.69189300  0.76951918     0.36700
C822        C  0.89334721  0.69218372  0.82477932     0.36700
C823        C  0.03387309  0.65765733  0.70113674    -0.20800
C824        C  0.98027543  0.65912918  0.70039983    -0.20800
C825        C  0.03030863  0.65729535  0.90276163    -0.20800
C826        C  0.97667561  0.65564855  0.90231020    -0.20800
C827        C  0.16612681  0.70411556  0.77725405    -0.21900
C828        C  0.16580013  0.70636201  0.81194648    -0.21900
C829        C  0.84365600  0.70384628  0.77831387    -0.21900
C830        C  0.84357403  0.70433439  0.81338782    -0.21900
C831        C  0.10073080  0.68184797  0.73802807    -0.17200
C832        C  0.91066257  0.68486811  0.73651788    -0.17200
C833        C  0.91011437  0.68633191  0.85939535    -0.17200
C834        C  0.09919736  0.68903572  0.85990030    -0.17200
H835        H  0.05915586  0.64847608  0.68130074     0.15700
H836        H  0.95672848  0.65107080  0.68000729     0.15700
H837        H  0.05427169  0.64602985  0.92503612     0.15700
H838        H  0.95116727  0.64326441  0.92435503     0.15700
H839        H  0.19891551  0.71195193  0.75923726     0.14000
H840        H  0.19812976  0.71641408  0.82583762     0.14000
H841        H  0.81068346  0.71098822  0.76140919     0.14000
H842        H  0.81048288  0.71209615  0.82873064     0.14000
H843        H  0.00523635  0.69942346  0.76806603     0.27200
H844        H  0.00552324  0.70707149  0.82468847     0.27200
N845        N  0.50640403  0.81364691  0.72632669    -0.35500
N846        N  0.58784186  0.81215563  0.77762131    -0.56100
N847        N  0.50587782  0.79716339  0.82971351    -0.35500
N848        N  0.42444619  0.80353281  0.77753207    -0.56100
C849        C  0.54960544  0.82625151  0.70670255     0.28100
C850        C  0.46464820  0.82603172  0.70626992     0.28100
C851        C  0.54610261  0.80698439  0.84869460     0.28100
C852        C  0.46173679  0.79783804  0.84910614     0.28100
C853        C  0.61804581  0.80610015  0.75038833     0.36700
C854        C  0.61770675  0.80271884  0.80597195     0.36700
C855        C  0.39536196  0.79985270  0.74999894     0.36700
C856        C  0.39574003  0.78648485  0.80605014     0.36700
C857        C  0.53541344  0.84777093  0.67402568    -0.20800
C858        C  0.48167931  0.84799515  0.67384624    -0.20800
C859        C  0.52708832  0.81440021  0.88037391    -0.20800
C860        C  0.47396065  0.80821796  0.88078274    -0.20800
C861        C  0.66795581  0.79368762  0.76130019    -0.21900
C862        C  0.66788027  0.79205881  0.79663290    -0.21900
C863        C  0.34721930  0.78148093  0.76105767    -0.21900
C864        C  0.34744252  0.77301837  0.79673628    -0.21900
C865        C  0.60088417  0.81280214  0.71591841    -0.17200
C866        C  0.41235750  0.81300651  0.71518349    -0.17200
C867        C  0.41156932  0.78538244  0.84025490    -0.17200
C868        C  0.59977338  0.80457875  0.83986642    -0.17200
H869        H  0.56121228  0.86049618  0.65221811     0.15700
H870        H  0.45792256  0.86109156  0.65185521     0.15700
H871        H  0.54936091  0.82192016  0.90155540     0.15700
H872        H  0.44759279  0.81035742  0.90232253     0.15700
H873        H  0.70097319  0.78673723  0.74554396     0.14000
H874        H  0.70055947  0.78323732  0.81354707     0.14000
H875        H  0.31554452  0.77447175  0.74519852     0.14000
H876        H  0.31571725  0.75870247  0.81383617     0.14000
H877        H  0.50617165  0.79131238  0.74959121     0.27200
H878        H  0.50868297  0.78459070  0.80717280     0.27200
N879        N  0.49062083  0.16754608  0.74733669    -0.35500
N880        N  0.56656737  0.16803247  0.80013809    -0.56100
N881        N  0.47918894  0.17708687  0.84736101    -0.35500
N882        N  0.40313794  0.17236924  0.79498591    -0.56100
C883        C  0.53403969  0.15403121  0.73217944     0.28100
C884        C  0.44941333  0.15968280  0.72851077     0.28100
C885        C  0.51978538  0.16992091  0.86915842     0.28100
C886        C  0.43484208  0.16833056  0.86697467     0.28100
C887        C  0.59996554  0.17163288  0.77254155     0.36700
C888        C  0.59353054  0.17949341  0.82609222     0.36700
C889        C  0.37743922  0.18162807  0.76480964     0.36700
C890        C  0.37028758  0.18175391  0.81994639     0.36700
C891        C  0.51991102  0.13616716  0.70405201    -0.20800
C892        C  0.46660172  0.14025168  0.70146838    -0.20800
C893        C  0.50122569  0.15605628  0.90291429    -0.20800
C894        C  0.44767453  0.15467020  0.90150766    -0.20800
C895        C  0.64888974  0.18439261  0.78124727    -0.21900
C896        C  0.64481874  0.18931543  0.81531453    -0.21900
C897        C  0.32733830  0.19592660  0.77070968    -0.21900
C898        C  0.32275559  0.19592313  0.80578270    -0.21900
C899        C  0.58622134  0.16343085  0.73979594    -0.17200
C900        C  0.39791677  0.17439495  0.73268508    -0.17200
C901        C  0.38322517  0.17739774  0.85521268    -0.17200
C902        C  0.57281066  0.17898657  0.85976822    -0.17200
H903        H  0.54569071  0.12345368  0.68619845     0.15700
H904        H  0.44335840  0.13113020  0.68134268     0.15700
H905        H  0.52391252  0.14836657  0.92621471     0.15700
H906        H  0.42108551  0.14591169  0.92358744     0.15700
H907        H  0.68372787  0.18976098  0.76482085     0.14000
H908        H  0.67597592  0.19894550  0.83041143     0.14000
H909        H  0.29718336  0.20502530  0.75182460     0.14000
H910        H  0.28860952  0.20554659  0.81921311     0.14000
H911        H  0.48981797  0.18754363  0.76554467     0.27200
H912        H  0.48159439  0.19309206  0.82162274     0.27200
C913        C  0.38915512  0.78921011  0.66150576    -0.15400
C914        C  0.37515039  0.81030085  0.68696489    -0.30500
H915        H  0.42786171  0.77476002  0.66191378     0.13700
H916        H  0.33565420  0.82264846  0.68851287     0.14200
C917        C  0.37374737  0.77109493  0.86889493    -0.15400
C918        C  0.34560197  0.80045953  0.88169270    -0.30500
H919        H  0.37631719  0.73783828  0.88294117     0.13700
H920        H  0.34681103  0.83421405  0.86845245     0.14200
C921        C  0.15254972  0.72449193  0.69051048    -0.15400
C922        C  0.13930859  0.68536882  0.70897724    -0.30500
H923        H  0.14102775  0.75343495  0.70011153     0.13700
H924        H  0.14928225  0.65614446  0.69935374     0.14200
C925        C  0.12226552  0.71960987  0.91130172    -0.15400
C926        C  0.13663935  0.69645241  0.88705088    -0.30500
H927        H  0.08325667  0.73352169  0.91033698     0.13700
H928        H  0.17633056  0.68428840  0.88632015     0.14200
C929        C  0.65065751  0.76648266  0.88889604    -0.15400
C930        C  0.63777439  0.80395971  0.86801788    -0.30500
H931        H  0.63933111  0.73605248  0.88187533     0.13700
H932        H  0.64837455  0.83471908  0.87469072     0.14200
C933        C  0.62108458  0.77723580  0.66705371    -0.15400
C934        C  0.63678134  0.80347833  0.68817768    -0.30500
H935        H  0.58250359  0.76239440  0.67103939     0.13700
H936        H  0.67599330  0.81705424  0.68576999     0.14200
C937        C  0.87259216  0.69359084  0.88714916    -0.15400
C938        C  0.88687984  0.71813595  0.90989316    -0.30500
H939        H  0.83374456  0.67940751  0.88860499     0.13700
H940        H  0.92501047  0.73382330  0.90673932     0.14200
C941        C  0.85468934  0.72319296  0.68932816    -0.15400
C942        C  0.87266711  0.68569318  0.70799786    -0.30500
H943        H  0.86194572  0.75318213  0.69833944     0.13700
H944        H  0.86674900  0.65572739  0.69869608     0.14200
C945        C  0.62633334  0.16892043  0.71084917    -0.15400
C946        C  0.61503753  0.19506276  0.68062791    -0.30500
H947        H  0.66419431  0.15326589  0.71459338     0.13700
H948        H  0.57787794  0.21220268  0.67912900     0.14200
C949        C  0.60673815  0.22260041  0.90006435    -0.15400
C950        C  0.60835298  0.18572817  0.88746526    -0.30500
H951        H  0.58317635  0.24963435  0.88741203     0.13700
H952        H  0.63350840  0.15910918  0.89882408     0.14200
C953        C  0.86565685  0.28506132  0.68797640    -0.15400
C954        C  0.85146085  0.24840114  0.67767007    -0.30500
H955        H  0.85349204  0.31650138  0.67375267     0.13700
H956        H  0.86285648  0.21739706  0.69315084     0.14200
C957        C  0.81861098  0.26528309  0.88002192    -0.15400
C958        C  0.84929214  0.29830147  0.86442472    -0.30500
H959        H  0.82037850  0.23514436  0.87035062     0.13700
H960        H  0.85292048  0.32667408  0.87621847     0.14200
C961        C  0.35213039  0.21643925  0.89969246    -0.15400
C962        C  0.34266716  0.18562553  0.88121387    -0.30500
H963        H  0.38701886  0.23629707  0.89279981     0.13700
H964        H  0.30750670  0.16589631  0.88586642     0.14200
C965        C  0.36096232  0.22096906  0.68129540    -0.15400
C966        C  0.36473131  0.18142970  0.70162966    -0.30500
H967        H  0.37680851  0.24891698  0.69011534     0.13700
H968        H  0.34954167  0.15309405  0.69310127     0.14200
C969        C  0.11226538  0.24779181  0.88054231    -0.15400
C970        C  0.10956031  0.27393402  0.90394679    -0.30500
H971        H  0.14091298  0.22186351  0.88317346     0.13700
H972        H  0.08296550  0.30138744  0.89959542     0.14200
C973        C  0.15689892  0.27849404  0.68052842    -0.15400
C974        C  0.13202599  0.24587920  0.70195444    -0.30500
H975        H  0.15634157  0.31090369  0.68635473     0.13700
H976        H  0.13259754  0.21358212  0.69585807     0.14200
C977        C  0.90517504  0.09735310  0.57889769    -0.12200
C978        C  0.93536790  0.06815200  0.57664338    -0.13800
C979        C  0.04652712  0.07655159  0.54935893    -0.12200
C980        C  0.07407252  0.10828199  0.54048761    -0.13800
C981        C  0.05754135  0.91861856  0.56679483    -0.12200
C982        C  0.08700311  0.88851385  0.56704635    -0.13800
C983        C  0.94230706  0.91361218  0.57073847    -0.12200
C984        C  0.91556565  0.88317196  0.56698474    -0.13800
C985        C  0.55499004  0.42689615  0.50135434    -0.12200
C986        C  0.58121029  0.39501125  0.49934272    -0.13800
C987        C  0.41533795  0.39285347  0.53319732    -0.12200
C988        C  0.44328626  0.42447559  0.52550634    -0.13800
C989        C  0.41512165  0.61444718  0.51240863    -0.12200
C990        C  0.44275043  0.58312597  0.51161957    -0.13800
C991        C  0.55856137  0.58276883  0.50537552    -0.12200
C992        C  0.58738397  0.61233267  0.50836983    -0.13800
loop_ 
_geom_bond_atom_site_label_1 
_geom_bond_atom_site_label_2 
_geom_bond_distance 
_geom_bond_site_symmetry_2 
_ccdc_geom_bond_type 
C1            C6   1.404       .  A
C1          C498   1.412       .  A
C1          C494   1.457       .  S
C2            C3   1.411       .  A
C2          C497   1.413       .  A
C2          C991   1.454       .  S
C3            C4   1.409       .  A
C3            H8   1.085       .  S
C4          C501   1.417       .  A
C4          C985   1.465       .  S
C5            C6   1.407       .  A
C5          C500   1.414       .  A
C5          C492   1.448       .  S
C6            H7   1.085       .  S
C9           C10   1.408   1_655  A
C9           C14   1.403       .  A
C9          C487   1.443       .  S
C10          C11   1.403       .  A
C10         C485   1.454       .  S
C11          C12   1.407   1_565  A
C11          H16   1.085       .  S
C12          C13   1.417   1_455  A
C12         C483   1.451       .  S
C13          C14   1.404   1_545  A
C13         C482   1.455       .  S
C14          H15   1.085       .  S
Zr17         O18   2.440       .  S
Zr17         O19   2.459       .  S
Zr17         O23   2.484       .  S
Zr17        O516   2.483       .  S
Zr17         O26   2.386       .  S
Zr17        O521   2.391       .  S
Zr17        O523   2.420       .  S
Zr17        O524   2.419       .  S
O18          H74   0.990       .  S
O18         H578   0.990       .  S
O19          C39   1.289       .  A
O20        Zr513   2.480   1_554  S
O20          C41   1.292       .  A
O21        Zr527   2.399       .  S
O21          C40   1.278       .  A
O22         Zr30   2.403       .  S
O22          C41   1.277       .  A
O23          C40   1.293       .  A
O24        Zr528   2.416       .  S
O24          C39   1.280       .  A
O25         Zr30   2.393       .  S
O25         Zr32   2.377       .  S
O25        Zr513   2.386   1_554  S
O26        Zr527   2.383       .  S
O26        Zr528   2.373       .  S
O26          H61   0.966       .  S
O27         Zr30   2.402       .  S
O27         Zr47   2.398       .  S
O27        Zr513   2.410   1_554  S
O27          H64   0.965       .  S
O28         Zr31   2.385   1_554  S
O28         Zr47   2.398       .  S
O28        Zr513   2.409   1_554  S
Zr29         O54   2.443       .  S
Zr29         O48   2.433       .  S
Zr29         O56   2.462       .  S
Zr29         O44   2.454       .  S
Zr29         O35   2.404       .  S
Zr29         O36   2.408       .  S
Zr29         O37   2.374       .  S
Zr29         O38   2.385       .  S
Zr30         O49   2.437       .  S
Zr30         O42   2.436       .  S
Zr30         O43   2.420       .  S
Zr30         O36   2.392       .  S
Zr30         O37   2.373       .  S
Zr31         O33   2.433       .  S
Zr31        O551   2.438       .  S
Zr31         O57   2.404   1_556  S
Zr31        O517   2.404       .  S
Zr31         O35   2.388   1_556  S
Zr31         O38   2.384   1_556  S
Zr31        O522   2.381       .  S
Zr32         O59   2.436       .  S
Zr32         O34   2.439       .  S
Zr32        O554   2.436   1_554  S
Zr32        O520   2.428   1_554  S
Zr32         O35   2.399       .  S
Zr32         O36   2.398       .  S
Zr32        O522   2.373   1_554  S
O33         H566   0.990   1_556  S
O34          H79   0.990       .  S
O34         H561   0.990   1_554  S
O36          H62   0.966       .  S
O37         Zr47   2.366       .  S
O38         Zr47   2.380       .  S
O38          H63   0.965       .  S
C39         C474   1.479       .  S
C40         C465   1.482       .  S
C41         C484   1.443       .  S
O42          H78   0.990       .  S
O43          C45   1.284       .  A
O44          C45   1.288       .  A
C45         C477   1.483       .  S
O46         Zr47   2.442       .  S
O46          H75   0.990       .  S
Zr47         O50   2.437       .  S
Zr47         O51   2.444       .  S
Zr47         O52   2.433       .  S
O48          C53   1.284       .  A
O49          H66   0.990       .  S
O49          H81   0.990       .  S
O50          H67   0.990       .  S
O51          H71   0.990       .  S
O51          H80   0.990       .  S
O52          C53   1.285       .  A
C53         C469   1.479       .  S
O54          H73   0.990       .  S
O54          H77   0.990       .  S
O55        Zr527   2.438       .  S
O55          H69   0.990       .  S
O55          H76   0.990       .  S
O56          C60   1.289       .  A
O57          C60   1.278       .  A
O58        Zr528   2.437       .  S
O58          H68   0.990       .  S
O59          H72   0.990       .  S
C60         C491   1.438       .  S
H65         O530   0.990       .  S
H70         O529   0.990       .  S
H82         O514   0.990       .  S
Zr83         O84   2.438       .  S
Zr83         O85   2.437       .  S
Zr83         O86   2.476       .  S
Zr83         O89   2.478       .  S
Zr83         O91   2.389       .  S
Zr83         O92   2.387       .  S
Zr83         O93   2.416       .  S
Zr83         O94   2.414       .  S
O84         H140   0.991       .  S
O84         H148   0.990       .  S
O85         C105   1.284       .  A
O86         C107   1.292       .  A
O87         Zr97   2.404       .  S
O87         C106   1.278       .  A
O88         Zr96   2.414       .  S
O88         C107   1.278       .  A
O89         C106   1.292       .  A
O90         Zr98   2.435       .  S
O90         C105   1.284       .  A
O91         Zr96   2.393       .  S
O91         Zr98   2.378       .  S
O92         Zr97   2.383       .  S
O92         Zr98   2.373       .  S
O92         H127   0.965       .  S
O93         Zr96   2.402       .  S
O93        Zr113   2.396       .  S
O93         H130   0.966       .  S
O94         Zr97   2.391       .  S
O94        Zr113   2.399       .  S
Zr95        O120   2.441       .  S
Zr95        O114   2.449       .  S
Zr95        O122   2.491       .  S
Zr95        O110   2.479       .  S
Zr95        O103   2.379       .  S
Zr95        O597   2.403       .  S
Zr95        O598   2.423       .  S
Zr95        O600   2.390       .  S
Zr96        O108   2.434   1_554  S
Zr96        O611   2.442   1_554  S
Zr96        O605   2.423   1_554  S
Zr96        O102   2.393   1_554  S
Zr96        O599   2.374   1_554  S
Zr97         O99   2.436       .  S
Zr97        O121   2.441       .  S
Zr97        O123   2.413       .  S
Zr97        O101   2.384       .  S
Zr97        O104   2.385       .  S
Zr98        O124   2.436       .  S
Zr98        O125   2.435       .  S
Zr98        O100   2.438       .  S
Zr98        O101   2.392       .  S
Zr98        O102   2.410   1_554  S
O99         H136   0.990       .  S
O100        H131   0.990       .  S
O100        H145   0.990       .  S
O101       Zr591   2.398   1_554  S
O102       Zr591   2.416       .  S
O102        H624   0.967       .  S
O103       Zr592   2.374       .  S
O103       Zr609   2.365       .  S
O104       Zr113   2.388       .  S
O104       Zr591   2.393   1_554  S
O104        H129   0.965       .  S
C105        C458   1.476       .  S
C106        C450   1.481       .  S
C107        C481   1.447       .  S
O108        H144   0.990       .  S
O109       Zr592   2.400       .  S
O109        C111   1.279       .  A
O110        C111   1.292       .  A
C111        C461   1.479       .  S
O112       Zr113   2.439       .  S
O112        H141   0.990       .  S
Zr113       O117   2.441       .  S
Zr113       O612   2.438   1_554  S
Zr113       O614   2.423   1_554  S
Zr113       O599   2.362   1_554  S
O114        C119   1.287       .  A
O115       Zr592   2.440       .  S
O115        H132   0.990       .  S
O115        H147   0.990       .  S
O116       Zr609   2.440       .  S
O116        H133   0.990       .  S
O117        H137   0.990   1_554  S
O117        H146   0.989       .  S
O118       Zr609   2.419       .  S
O118        C119   1.282       .  A
C119        C453   1.480       .  S
O120        H139   0.990       .  S
O120        H143   0.990       .  S
O121        H135   0.990       .  S
O121        H142   0.990       .  S
O122        C622   1.295       .  A
O123        C126   1.279       .  A
O124        H134   0.990       .  S
O125        H138   0.990       .  S
C126        C490   1.450       .  S
C126        O618   1.293   1_554  A
H128        O598   0.967       .  S
Zr149       O150   2.437       .  S
Zr149       O151   2.431       .  S
Zr149       O152   2.421       .  S
Zr149       O155   2.428       .  S
Zr149       O157   2.379       .  S
Zr149       O158   2.376       .  S
Zr149       O159   2.410       .  S
Zr149       O160   2.401       .  S
O150        H206   0.990       .  S
O150        H214   0.990       .  S
O151        C171   1.283       .  A
O152        C173   1.283       .  A
O153       Zr163   2.432       .  S
O153        C172   1.283       .  A
O154       Zr162   2.430       .  S
O154        C173   1.285       .  A
O155        C172   1.282       .  A
O156       Zr164   2.449       .  S
O156        C171   1.287       .  A
O157       Zr162   2.390       .  S
O157       Zr164   2.369       .  S
O158       Zr163   2.385       .  S
O158       Zr164   2.372       .  S
O158        H193   0.967       .  S
O159       Zr162   2.397       .  S
O159       Zr179   2.403   1_554  S
O159        H196   0.966       .  S
O160       Zr163   2.392       .  S
O160       Zr179   2.403   1_554  S
Zr161       O186   2.441       .  S
Zr161       O180   2.433       .  S
Zr161       O188   2.428       .  S
Zr161       O672   2.442       .  S
Zr161       O170   2.385       .  S
Zr161       O663   2.410       .  S
Zr161       O664   2.408       .  S
Zr161       O665   2.378       .  S
Zr162       O181   2.436       .  S
Zr162       O174   2.434       .  S
Zr162       O175   2.443       .  S
Zr162       O168   2.393       .  S
Zr162       O169   2.384       .  S
Zr163       O187   2.439       .  S
Zr163       O661   2.436   1_554  S
Zr163       O685   2.427   1_554  S
Zr163       O167   2.391       .  S
Zr163       O666   2.388   1_554  S
Zr164       O190   2.434       .  S
Zr164       O191   2.434       .  S
Zr164       O166   2.436       .  S
Zr164       O167   2.407       .  S
Zr164       O168   2.402       .  S
O165       Zr659   2.435       .  S
O165        H202   0.990       .  S
O166        H197   0.990       .  S
O166        H211   0.990       .  S
O167       Zr657   2.407   1_554  S
O168       Zr657   2.406   1_554  S
O168        H194   0.966       .  S
O169       Zr179   2.374   1_554  S
O169       Zr657   2.376   1_554  S
O170       Zr659   2.392       .  S
O170       Zr675   2.370       .  S
O170        H195   0.966       .  S
C171        C445   1.486       .  S
C172        C488   1.435       .  S
C173        C437   1.470       .  S
O174        H210   0.990       .  S
O175        C177   1.285       .  A
O176       Zr657   2.435       .  S
O176        C177   1.284   1_556  A
C177        C496   1.442       .  S
O178       Zr179   2.438   1_554  S
O178        H207   0.990   1_554  S
Zr179       O182   2.436       .  S
Zr179       O679   2.439       .  S
Zr179       O680   2.442       .  S
Zr179       O666   2.366       .  S
O180        C185   1.284       .  A
O181        H198   0.990       .  S
O181        H213   0.990       .  S
O182        H695   0.990   1_556  S
O183       Zr675   2.440       .  S
O183        H203   0.990       .  S
O183        H212   0.990       .  S
O184       Zr675   2.451       .  S
O184        C185   1.288       .  A
C185        C433   1.486       .  S
O186        H205   0.990       .  S
O186        H705   0.990       .  S
O187        H208   0.990       .  S
O187        H697   0.990       .  S
O188        C192   1.284       .  A
O189       Zr659   2.427       .  S
O189        C192   1.284       .  A
O190        H200   0.990       .  S
O191        H204   0.990       .  S
C192        C442   1.468       .  S
H199        O678   0.990       .  S
H201        O683   0.990       .  S
H209        O682   0.990       .  S
Zr215       O216   2.438       .  S
Zr215       O217   2.425       .  S
Zr215       O218   2.460       .  S
Zr215       O221   2.458       .  S
Zr215       O223   2.381       .  S
Zr215       O720   2.387       .  S
Zr215       O721   2.410       .  S
Zr215       O722   2.400       .  S
O216        H272   0.990       .  S
O216        H280   0.990       .  S
O217        C237   1.284       .  A
O218        C239   1.289       .  A
O219       Zr229   2.433       .  S
O219        C238   1.283       .  A
O220       Zr724   2.412       .  S
O220        C239   1.280       .  A
O221        C734   1.289       .  A
O222       Zr726   2.408       .  S
O222        C237   1.278       .  A
O223       Zr724   2.386       .  S
O223       Zr726   2.373       .  S
O224       Zr229   2.387   1_556  S
O224       Zr230   2.382       .  S
O224       Zr711   2.388       .  S
O224        H259   0.966       .  S
O225       Zr228   2.397       .  S
O225       Zr245   2.403       .  S
O225       Zr711   2.410   1_554  S
O225        H262   0.966       .  S
O226       Zr229   2.388       .  S
O226       Zr245   2.390       .  S
O226       Zr711   2.395   1_554  S
Zr227       O252   2.444       .  S
Zr227       O246   2.426       .  S
Zr227       O254   2.447       .  S
Zr227       O242   2.455       .  S
Zr227       O233   2.407       .  S
Zr227       O234   2.405       .  S
Zr227       O235   2.385       .  S
Zr227       O236   2.385       .  S
Zr228       O247   2.437       .  S
Zr228       O736   2.434   1_554  S
Zr228       O241   2.435       .  S
Zr228       O716   2.432   1_554  S
Zr228       O234   2.399       .  S
Zr228       O235   2.387       .  S
Zr228       O719   2.390   1_554  S
Zr229       O231   2.435       .  S
Zr229       O253   2.437       .  S
Zr229       O255   2.424       .  S
Zr229       O233   2.394       .  S
Zr229       O236   2.384       .  S
Zr230       O256   2.436       .  S
Zr230       O257   2.437   1_556  S
Zr230       O728   2.438       .  S
Zr230       O718   2.408       .  S
Zr230       O233   2.396   1_556  S
Zr230       O234   2.386   1_556  S
Zr230       O719   2.377       .  S
O231        H268   0.990       .  S
O232       Zr726   2.436       .  S
O232        H263   0.990       .  S
O232        H277   0.990       .  S
O234        H260   0.965       .  S
O235       Zr245   2.379       .  S
O236       Zr245   2.369       .  S
O236        H261   0.965       .  S
C237        C422   1.463       .  S
C238        C493   1.448       .  S
C238        O717   1.288   1_554  A
C239        C429   1.478       .  S
O240       Zr724   2.435       .  S
O240        H276   0.990       .  S
O241        C243   1.283       .  A
O242        C243   1.288       .  A
C243        C486   1.444       .  S
O244       Zr245   2.439       .  S
O244        H273   0.991       .  S
Zr245       O248   2.438       .  S
Zr245       O249   2.439       .  S
Zr245       O250   2.421       .  S
O246        C251   1.284       .  A
O247        H264   0.990       .  S
O247        H279   0.990       .  S
O248        H265   0.990       .  S
O249        H269   0.990       .  S
O249        H278   0.990       .  S
O250        C251   1.281       .  A
C251        C425   1.468       .  S
O252        H271   0.990       .  S
O252        H275   0.990       .  S
O253        H267   0.990       .  S
O253        H274   0.990       .  S
O254        C258   1.287       .  A
O255        C258   1.283       .  A
O256        H762   0.990       .  S
O257        H270   0.990       .  S
C258        C417   1.475       .  S
H266        O752   0.990       .  S
N281        C286   1.353       .  A
N281        C285   1.355   1_655  A
N281        H313   1.037       .  S
N282        C289   1.352       .  A
N282        C290   1.352       .  A
N283        C288   1.356       .  A
N283        C287   1.357   1_655  A
N283        H314   1.037       .  S
N284        C291   1.352       .  A
N284        C292   1.353       .  A
C285        C293   1.388       .  A
C285        C301   1.416       .  A
C286        C302   1.415       .  A
C286        C294   1.386       .  A
C287        C295   1.389   1_455  A
C287        C304   1.424       .  A
C288        C303   1.421       .  A
C288        C296   1.385       .  A
C289        C301   1.413       .  A
C289        C297   1.385       .  A
C290        C304   1.416       .  A
C290        C298   1.388       .  A
C291        C299   1.386       .  A
C291        C302   1.415       .  A
C292        C300   1.385       .  A
C292        C303   1.413       .  A
C293        C294   1.373   1_455  A
C293        H305   1.082       .  S
C294        H306   1.082       .  S
C295        C296   1.372       .  A
C295        H307   1.080   1_655  S
C296        H308   1.083       .  S
C297        C298   1.377       .  A
C297        H309   1.082       .  S
C298        H310   1.082       .  S
C299        C300   1.378       .  A
C299        H311   1.082       .  S
C300        H312   1.082       .  S
C301        C478   1.486       .  S
C302        C457   1.488       .  S
C303        C462   1.499       .  S
C304        C473   1.494       .  S
N315        C320   1.357   1_455  A
N315        C319   1.352       .  A
N315        H347   1.038       .  S
N316        C323   1.348       .  A
N316        C324   1.352       .  A
N317        C322   1.349   1_455  A
N317        C321   1.354       .  A
N317        H348   1.041       .  S
N318        C325   1.351       .  A
N318        C326   1.350       .  A
C319        C327   1.390       .  A
C319        C335   1.419       .  A
C320        C336   1.417       .  A
C320        C328   1.387       .  A
C321        C329   1.386       .  A
C321        C338   1.415       .  A
C322        C337   1.413       .  A
C322        C330   1.387       .  A
C323        C335   1.410       .  A
C323        C331   1.387       .  A
C324        C338   1.410       .  A
C324        C332   1.385       .  A
C325        C333   1.386       .  A
C325        C336   1.413       .  A
C326        C334   1.387       .  A
C326        C337   1.413       .  A
C327        C328   1.373   1_455  A
C327        H339   1.081       .  S
C328        H340   1.082       .  S
C329        C330   1.375   1_455  A
C329        H341   1.082       .  S
C330        H342   1.083       .  S
C331        C332   1.376       .  A
C331        H343   1.082       .  S
C332        H344   1.082       .  S
C333        C334   1.380       .  A
C333        H345   1.082       .  S
C334        H346   1.082       .  S
C335        C426   1.477       .  S
C336        C446   1.492       .  S
C337        C441   1.489       .  S
C338        C430   1.496       .  S
N349        C354   1.354       .  A
N349        C353   1.348       .  A
N349        H381   1.041       .  S
N350        C357   1.349       .  A
N350        C358   1.351       .  A
N351        C356   1.351       .  A
N351        C355   1.357       .  A
N351        H382   1.038       .  S
N352        C359   1.351       .  A
N352        C360   1.347       .  A
C353        C361   1.386       .  A
C353        C369   1.411       .  A
C354        C370   1.416       .  A
C354        C362   1.387       .  A
C355        C363   1.385       .  A
C355        C372   1.414       .  A
C356        C371   1.417       .  A
C356        C364   1.390       .  A
C357        C369   1.412       .  A
C357        C365   1.387       .  A
C358        C372   1.411       .  A
C358        C366   1.384       .  A
C359        C367   1.386       .  A
C359        C370   1.410       .  A
C360        C368   1.387       .  A
C360        C371   1.408       .  A
C361        C362   1.376       .  A
C361        H373   1.082       .  S
C362        H374   1.082       .  S
C363        C364   1.372       .  A
C363        H375   1.082       .  S
C364        H376   1.081       .  S
C365        C366   1.380       .  A
C365        H377   1.082       .  S
C366        H378   1.082       .  S
C367        C368   1.376       .  A
C367        H379   1.082       .  S
C368        H380   1.083       .  S
C369        C438   1.487       .  S
C370        C418   1.496       .  S
C371        C421   1.473       .  S
C372        C434   1.492       .  S
N383        C388   1.352       .  A
N383        C387   1.355       .  A
N383        H415   1.040       .  S
N384        C391   1.352       .  A
N384        C392   1.350       .  A
N385        C390   1.357       .  A
N385        C389   1.354       .  A
N385        H416   1.040       .  S
N386        C393   1.350       .  A
N386        C394   1.351       .  A
C387        C395   1.387       .  A
C387        C403   1.420       .  A
C388        C404   1.412       .  A
C388        C396   1.386       .  A
C389        C397   1.386       .  A
C389        C406   1.414       .  A
C390        C405   1.423       .  A
C390        C398   1.388       .  A
C391        C403   1.413       .  A
C391        C399   1.386       .  A
C392        C406   1.412       .  A
C392        C400   1.387       .  A
C393        C401   1.387       .  A
C393        C404   1.413       .  A
C394        C402   1.386       .  A
C394        C405   1.413       .  A
C395        C396   1.375       .  A
C395        H407   1.082       .  S
C396        H408   1.082       .  S
C397        C398   1.375       .  A
C397        H409   1.083       .  S
C398        H410   1.082       .  S
C399        C400   1.380       .  A
C399        H411   1.082       .  S
C400        H412   1.082       .  S
C401        C402   1.382       .  A
C401        H413   1.082       .  S
C402        H414   1.082       .  S
C403        C449   1.503       .  S
C404        C470   1.483       .  S
C405        C466   1.503       .  S
C406        C454   1.483       .  S
C417        C418   1.345       .  D
C417        H419   1.088       .  S
C418        H420   1.086       .  S
C421        C422   1.336       .  D
C421        H423   1.086       .  S
C422        H424   1.088       .  S
C425        C426   1.339       .  D
C425        H427   1.088       .  S
C426        H428   1.086       .  S
C429        C430   1.345       .  D
C429        H431   1.088       .  S
C430        H432   1.086       .  S
C433        C434   1.345       .  D
C433        H435   1.087       .  S
C434        H436   1.086       .  S
C437        C438   1.348       .  D
C437        H439   1.088       .  S
C438        H440   1.086       .  S
C441        C442   1.347       .  D
C441        H443   1.086       .  S
C442        H444   1.088       .  S
C445        C446   1.345       .  D
C445        H447   1.087       .  S
C446        H448   1.086       .  S
C449        C450   1.345       .  D
C449        H451   1.086       .  S
C450        H452   1.089       .  S
C453        C454   1.348       .  D
C453        H455   1.087       .  S
C454        H456   1.086       .  S
C457        C458   1.346       .  D
C457        H459   1.086       .  S
C458        H460   1.087       .  S
C461        C462   1.344       .  D
C461        H463   1.089       .  S
C462        H464   1.085       .  S
C465        C466   1.344       .  D
C465        H467   1.089       .  S
C466        H468   1.086       .  S
C469        C470   1.345       .  D
C469        H471   1.087       .  S
C470        H472   1.086       .  S
C473        C474   1.341       .  D
C473        H475   1.086       .  S
C474        H476   1.088       .  S
C477        C478   1.347       .  D
C477        H479   1.086       .  S
C478        H480   1.086       .  S
C481        C482   1.214       .  T
C483        C484   1.211       .  T
C485        C486   1.212       .  T
C487        C488   1.206       .  T
C489        C500   1.460       .  S
C489        C490   1.216       .  T
C491        C492   1.209       .  T
C493        C494   1.214       .  T
C495        C498   1.449       .  S
C495        C496   1.210       .  T
C497        C502   1.405       .  A
C497        C990   1.459       .  S
C498        C499   1.408       .  A
C499        C500   1.406       .  A
C499        H504   1.085   1_554  S
C501        C502   1.408       .  A
C501        C988   1.452       .  S
C502        H503   1.085       .  S
C505        C506   1.408   1_655  A
C505        C510   1.405       .  A
C505        C983   1.453       .  S
C506        C507   1.402       .  A
C506        C981   1.446       .  S
C507        C508   1.404   1_565  A
C507        H512   1.085   1_565  S
C508        C509   1.417   1_455  A
C508        C979   1.453       .  S
C509        C510   1.407   1_545  A
C509        C978   1.454       .  S
C510        H511   1.085       .  S
Zr513       O514   2.438       .  S
Zr513       O515   2.438       .  S
Zr513       O519   2.465       .  S
Zr513       O522   2.389       .  S
O514        H570   0.990       .  S
O515        C535   1.285       .  A
O516        C537   1.293       .  A
O517        C536   1.279       .  A
O518       Zr526   2.406       .  S
O518        C537   1.276       .  A
O519        C536   1.290       .  A
O520        C535   1.283       .  A
O521       Zr526   2.396       .  S
O521       Zr528   2.380       .  S
O522        H557   0.967       .  S
O523       Zr526   2.403       .  S
O523       Zr543   2.398       .  S
O523        H560   0.965       .  S
O524       Zr527   2.392       .  S
O524       Zr543   2.405       .  S
Zr525       O550   2.443       .  S
Zr525       O544   2.434       .  S
Zr525       O552   2.467       .  S
Zr525       O540   2.444       .  S
Zr525       O531   2.396       .  S
Zr525       O532   2.412       .  S
Zr525       O533   2.380       .  S
Zr525       O534   2.386       .  S
Zr526       O545   2.441       .  S
Zr526       O538   2.435       .  S
Zr526       O539   2.427       .  S
Zr526       O532   2.390       .  S
Zr526       O533   2.376       .  S
Zr527       O529   2.434       .  S
Zr527       O553   2.409       .  S
Zr527       O531   2.384       .  S
Zr527       O534   2.383       .  S
Zr528       O555   2.436       .  S
Zr528       O530   2.438       .  S
Zr528       O531   2.391       .  S
Zr528       O532   2.401       .  S
O530        H575   0.990       .  S
O532        H558   0.966       .  S
O533       Zr543   2.363       .  S
O534       Zr543   2.382       .  S
O534        H559   0.965       .  S
C535        C970   1.475       .  S
C536        C961   1.476       .  S
C537        C980   1.445       .  S
O538        H574   0.990       .  S
O539        C541   1.285       .  A
O540        C541   1.285       .  A
C541        C973   1.479       .  S
O542       Zr543   2.440       .  S
O542        H571   0.991       .  S
Zr543       O546   2.438       .  S
Zr543       O547   2.441       .  S
Zr543       O548   2.438       .  S
O544        C549   1.285       .  A
O545        H562   0.991       .  S
O545        H577   0.990       .  S
O546        H563   0.990       .  S
O547        H567   0.990       .  S
O547        H576   0.989       .  S
O548        C549   1.286       .  A
C549        C965   1.481       .  S
O550        H569   0.990       .  S
O550        H573   0.990       .  S
O551        H565   0.990       .  S
O551        H572   0.990       .  S
O552        C556   1.290       .  A
O553        C556   1.278       .  A
O554        H564   0.990       .  S
O555        H568   0.990       .  S
C556        C987   1.443       .  S
Zr579       O580   2.437       .  S
Zr579       O581   2.429       .  S
Zr579       O582   2.486       .  S
Zr579       O585   2.468       .  S
Zr579       O587   2.384       .  S
Zr579       O588   2.386       .  S
Zr579       O589   2.407       .  S
Zr579       O590   2.412       .  S
O580        H636   0.990       .  S
O580        H644   0.990       .  S
O581        C601   1.284       .  A
O582        C603   1.294       .  A
O583       Zr593   2.402       .  S
O583        C602   1.279       .  A
O584       Zr592   2.401       .  S
O584        C603   1.276       .  A
O585        C602   1.291       .  A
O586       Zr594   2.447       .  S
O586        C601   1.287       .  A
O587       Zr592   2.386       .  S
O587       Zr594   2.374       .  S
O588       Zr593   2.380       .  S
O588       Zr594   2.368       .  S
O588        H623   0.965       .  S
O589       Zr592   2.396       .  S
O589       Zr609   2.396       .  S
O589        H626   0.966       .  S
O590       Zr593   2.392       .  S
O590       Zr609   2.397       .  S
Zr591       O616   2.444       .  S
Zr591       O610   2.441       .  S
Zr591       O618   2.479       .  S
Zr591       O606   2.464       .  S
Zr591       O599   2.380       .  S
Zr592       O604   2.436       .  S
Zr592       O598   2.390       .  S
Zr593       O595   2.435       .  S
Zr593       O617   2.438       .  S
Zr593       O619   2.407       .  S
Zr593       O597   2.382       .  S
Zr593       O600   2.385       .  S
Zr594       O620   2.437       .  S
Zr594       O621   2.434       .  S
Zr594       O596   2.438       .  S
Zr594       O597   2.397       .  S
Zr594       O598   2.412       .  S
O595        H632   0.990       .  S
O596        H627   0.990       .  S
O596        H641   0.990       .  S
O600       Zr609   2.386       .  S
O600        H625   0.964       .  S
C601        C954   1.479       .  S
C602        C946   1.475       .  S
C603        C977   1.445       .  S
O604        H640   0.990       .  S
O605        C607   1.282       .  A
O606        C607   1.289       .  A
C607        C957   1.478       .  S
O608       Zr609   2.439       .  S
O608        H637   0.990       .  S
Zr609       O613   2.439       .  S
O610        C615   1.286       .  A
O611        H628   0.990       .  S
O611        H643   0.990       .  S
O612        H629   0.990       .  S
O613        H633   0.990       .  S
O613        H642   0.990       .  S
O614        C615   1.283       .  A
C615        C949   1.474       .  S
O616        H635   0.990       .  S
O616        H639   0.990       .  S
O617        H631   0.990       .  S
O617        H638   0.990       .  S
O619        C622   1.278       .  A
O620        H630   0.990       .  S
O621        H634   0.990       .  S
C622        C986   1.454       .  S
Zr645       O646   2.440       .  S
Zr645       O647   2.445       .  S
Zr645       O648   2.415       .  S
Zr645       O651   2.434       .  S
Zr645       O653   2.380       .  S
Zr645       O654   2.373       .  S
Zr645       O655   2.415       .  S
Zr645       O656   2.404       .  S
O646        H702   0.990       .  S
O646        H710   0.990       .  S
O647        C667   1.286       .  A
O648        C669   1.281       .  A
O649       Zr659   2.446       .  S
O649        C668   1.286       .  A
O650       Zr658   2.427       .  S
O650        C669   1.284       .  A
O651        C668   1.284       .  A
O652       Zr660   2.448       .  S
O652        C667   1.287       .  A
O653       Zr658   2.394       .  S
O653       Zr660   2.371       .  S
O654       Zr659   2.387       .  S
O654       Zr660   2.373       .  S
O654        H689   0.967       .  S
O655       Zr658   2.398       .  S
O655       Zr675   2.405       .  S
O655        H692   0.966       .  S
O656       Zr659   2.391       .  S
O656       Zr675   2.408       .  S
Zr657       O682   2.439       .  S
Zr657       O676   2.431       .  S
Zr657       O684   2.424       .  S
Zr657       O666   2.380       .  S
Zr658       O677   2.436       .  S
Zr658       O670   2.433       .  S
Zr658       O671   2.444       .  S
Zr658       O664   2.395       .  S
Zr658       O665   2.386       .  S
Zr659       O683   2.436       .  S
Zr659       O663   2.397       .  S
Zr660       O686   2.435       .  S
Zr660       O687   2.435       .  S
Zr660       O662   2.437       .  S
Zr660       O663   2.405       .  S
Zr660       O664   2.407       .  S
O661        H698   0.990       .  S
O662        H693   0.991       .  S
O662        H707   0.990       .  S
O664        H690   0.966       .  S
O665       Zr675   2.376       .  S
O666        H691   0.966       .  S
C667        C941   1.492       .  S
C668        C984   1.445       .  S
C669        C933   1.467       .  S
O670        H706   0.990       .  S
O671        C673   1.286       .  A
O672        C673   1.285       .  A
C673        C992   1.447       .  S
O674       Zr675   2.441       .  S
O674        H703   0.991       .  S
Zr675       O678   2.438       .  S
O676        C681   1.283       .  A
O677        H694   0.990       .  S
O677        H709   0.990       .  S
O679        H699   0.990       .  S
O679        H708   0.990       .  S
O680        C681   1.286       .  A
C681        C929   1.482       .  S
O682        H701   0.991       .  S
O683        H704   0.990       .  S
O684        C688   1.284       .  A
O685        C688   1.284       .  A
O686        H696   0.990       .  S
O687        H700   0.990       .  S
C688        C938   1.467       .  S
Zr711       O712   2.438       .  S
Zr711       O713   2.424       .  S
Zr711       O714   2.451       .  S
Zr711       O717   2.455       .  S
Zr711       O719   2.385       .  S
O712        H768   0.990       .  S
O712        H776   0.990       .  S
O713        C733   1.283       .  A
O714        C735   1.287       .  A
O715       Zr725   2.434       .  S
O715        C734   1.283       .  A
O716        C735   1.284       .  A
O718        C733   1.277       .  A
O720       Zr725   2.384       .  S
O720       Zr726   2.379       .  S
O720        H755   0.966       .  S
O721       Zr724   2.394       .  S
O721       Zr741   2.408       .  S
O721        H758   0.966       .  S
O722       Zr725   2.391       .  S
O722       Zr741   2.392       .  S
Zr723       O748   2.444       .  S
Zr723       O742   2.422       .  S
Zr723       O750   2.444       .  S
Zr723       O738   2.455       .  S
Zr723       O729   2.406       .  S
Zr723       O730   2.401       .  S
Zr723       O731   2.385       .  S
Zr723       O732   2.387       .  S
Zr724       O743   2.435       .  S
Zr724       O737   2.415       .  S
Zr724       O730   2.399       .  S
Zr724       O731   2.382       .  S
Zr725       O727   2.435       .  S
Zr725       O749   2.437       .  S
Zr725       O751   2.421       .  S
Zr725       O729   2.392       .  S
Zr725       O732   2.391       .  S
Zr726       O752   2.437       .  S
Zr726       O753   2.436       .  S
Zr726       O729   2.393       .  S
Zr726       O730   2.385       .  S
O727        H764   0.990       .  S
O728        H759   0.991       .  S
O728        H773   0.990       .  S
O730        H756   0.965       .  S
O731       Zr741   2.379       .  S
O732       Zr741   2.368       .  S
O732        H757   0.966       .  S
C733        C918   1.463       .  S
C734        C989   1.451       .  S
C735        C925   1.484       .  S
O736        H772   0.990       .  S
O737        C739   1.279       .  A
O738        C739   1.287       .  A
C739        C982   1.436       .  S
O740       Zr741   2.438       .  S
O740        H769   0.991       .  S
Zr741       O744   2.439       .  S
Zr741       O745   2.438       .  S
Zr741       O746   2.431       .  S
O742        C747   1.281       .  A
O743        H760   0.990       .  S
O743        H775   0.990       .  S
O744        H761   0.990       .  S
O745        H765   0.990       .  S
O745        H774   0.990       .  S
O746        C747   1.284       .  A
C747        C921   1.473       .  S
O748        H767   0.990       .  S
O748        H771   0.990       .  S
O749        H763   0.990       .  S
O749        H770   0.990       .  S
O750        C754   1.287       .  A
O751        C754   1.282       .  A
O753        H766   0.990       .  S
C754        C913   1.473       .  S
N777        C782   1.356       .  A
N777        C781   1.355   1_655  A
N777        H809   1.034       .  S
N778        C785   1.352       .  A
N778        C786   1.351       .  A
N779        C784   1.357       .  A
N779        C783   1.356   1_655  A
N779        H810   1.038       .  S
N780        C787   1.352       .  A
N780        C788   1.353       .  A
C781        C789   1.387       .  A
C781        C797   1.418       .  A
C782        C798   1.423       .  A
C782        C790   1.390       .  A
C783        C791   1.387   1_455  A
C783        C800   1.421       .  A
C784        C799   1.420       .  A
C784        C792   1.387       .  A
C785        C797   1.414       .  A
C785        C793   1.386       .  A
C786        C800   1.416       .  A
C786        C794   1.388       .  A
C787        C795   1.387       .  A
C787        C798   1.418       .  A
C788        C796   1.385       .  A
C788        C799   1.415       .  A
C789        C790   1.368   1_455  A
C789        H801   1.082       .  S
C790        H802   1.081       .  S
C791        C792   1.369       .  A
C791        H803   1.082   1_655  S
C792        H804   1.081       .  S
C793        C794   1.377       .  A
C793        H805   1.083       .  S
C794        H806   1.082       .  S
C795        C796   1.378       .  A
C795        H807   1.082       .  S
C796        H808   1.082       .  S
C797        C974   1.485       .  S
C798        C953   1.492       .  S
C799        C958   1.495       .  S
C800        C969   1.494       .  S
N811        C816   1.358   1_455  A
N811        C815   1.353       .  A
N811        H843   1.038       .  S
N812        C819   1.348       .  A
N812        C820   1.353       .  A
N813        C818   1.350   1_455  A
N813        C817   1.355       .  A
N813        H844   1.041       .  S
N814        C821   1.352       .  A
N814        C822   1.348       .  A
C815        C823   1.388       .  A
C815        C831   1.417       .  A
C816        C832   1.418       .  A
C816        C824   1.386       .  A
C817        C825   1.385       .  A
C817        C834   1.414       .  A
C818        C833   1.417       .  A
C818        C826   1.389       .  A
C819        C831   1.414       .  A
C819        C827   1.388       .  A
C820        C834   1.412       .  A
C820        C828   1.385       .  A
C821        C829   1.386       .  A
C821        C832   1.415       .  A
C822        C830   1.388       .  A
C822        C833   1.413       .  A
C823        C824   1.373   1_455  A
C823        H835   1.082       .  S
C824        H836   1.082       .  S
C825        C826   1.374   1_455  A
C825        H837   1.082       .  S
C826        H838   1.083       .  S
C827        C828   1.378       .  A
C827        H839   1.082       .  S
C828        H840   1.082       .  S
C829        C830   1.381       .  A
C829        H841   1.082       .  S
C830        H842   1.082       .  S
C831        C922   1.479       .  S
C832        C942   1.497       .  S
C833        C937   1.486       .  S
C834        C926   1.502       .  S
N845        C850   1.354       .  A
N845        C849   1.348       .  A
N845        H877   1.039       .  S
N846        C853   1.348       .  A
N846        C854   1.350       .  A
N847        C852   1.350       .  A
N847        C851   1.355       .  A
N847        H878   1.038       .  S
N848        C855   1.350       .  A
N848        C856   1.346       .  A
C849        C857   1.387       .  A
C849        C865   1.411       .  A
C850        C866   1.416       .  A
C850        C858   1.387       .  A
C851        C859   1.386       .  A
C851        C868   1.414       .  A
C852        C867   1.414       .  A
C852        C860   1.389       .  A
C853        C865   1.410       .  A
C853        C861   1.388       .  A
C854        C868   1.410       .  A
C854        C862   1.385       .  A
C855        C863   1.386       .  A
C855        C866   1.409       .  A
C856        C864   1.387       .  A
C856        C867   1.406       .  A
C857        C858   1.375       .  A
C857        H869   1.083       .  S
C858        H870   1.082       .  S
C859        C860   1.373       .  A
C859        H871   1.083       .  S
C860        H872   1.082       .  S
C861        C862   1.379       .  A
C861        H873   1.082       .  S
C862        H874   1.082       .  S
C863        C864   1.375       .  A
C863        H875   1.082       .  S
C864        H876   1.083       .  S
C865        C934   1.480       .  S
C866        C914   1.493       .  S
C867        C917   1.470       .  S
C868        C930   1.487       .  S
N879        C884   1.352       .  A
N879        C883   1.354       .  A
N879        H911   1.039       .  S
N880        C887   1.352       .  A
N880        C888   1.350       .  A
N881        C886   1.355       .  A
N881        C885   1.353       .  A
N881        H912   1.039       .  S
N882        C889   1.351       .  A
N882        C890   1.351       .  A
C883        C891   1.388       .  A
C883        C899   1.419       .  A
C884        C900   1.412       .  A
C884        C892   1.386       .  A
C885        C893   1.386       .  A
C885        C902   1.413       .  A
C886        C901   1.420       .  A
C886        C894   1.388       .  A
C887        C899   1.412       .  A
C887        C895   1.386       .  A
C888        C902   1.411       .  A
C888        C896   1.386       .  A
C889        C897   1.387       .  A
C889        C900   1.413       .  A
C890        C898   1.386       .  A
C890        C901   1.413       .  A
C891        C892   1.374       .  A
C891        H903   1.082       .  S
C892        H904   1.082       .  S
C893        C894   1.374       .  A
C893        H905   1.083       .  S
C894        H906   1.082       .  S
C895        C896   1.378       .  A
C895        H907   1.082       .  S
C896        H908   1.082       .  S
C897        C898   1.380       .  A
C897        H909   1.082       .  S
C898        H910   1.082       .  S
C899        C945   1.499       .  S
C900        C966   1.484       .  S
C901        C962   1.496       .  S
C902        C950   1.481       .  S
C913        C914   1.344       .  D
C913        H915   1.088       .  S
C914        H916   1.086       .  S
C917        C918   1.335       .  D
C917        H919   1.086       .  S
C918        H920   1.088       .  S
C921        C922   1.341       .  D
C921        H923   1.088       .  S
C922        H924   1.086       .  S
C925        C926   1.350       .  D
C925        H927   1.087       .  S
C926        H928   1.086       .  S
C929        C930   1.344       .  D
C929        H931   1.087       .  S
C930        H932   1.086       .  S
C933        C934   1.346       .  D
C933        H935   1.088       .  S
C934        H936   1.086       .  S
C937        C938   1.345       .  D
C937        H939   1.086       .  S
C938        H940   1.088       .  S
C941        C942   1.349       .  D
C941        H943   1.087       .  S
C942        H944   1.086       .  S
C945        C946   1.344       .  D
C945        H947   1.086       .  S
C946        H948   1.089       .  S
C949        C950   1.345       .  D
C949        H951   1.087       .  S
C950        H952   1.086       .  S
C953        C954   1.346       .  D
C953        H955   1.086       .  S
C954        H956   1.088       .  S
C957        C958   1.343       .  D
C957        H959   1.087       .  S
C958        H960   1.087       .  S
C961        C962   1.343       .  D
C961        H963   1.089       .  S
C962        H964   1.086       .  S
C965        C966   1.346       .  D
C965        H967   1.087       .  S
C966        H968   1.086       .  S
C969        C970   1.347       .  D
C969        H971   1.086       .  S
C970        H972   1.088       .  S
C973        C974   1.345       .  D
C973        H975   1.086       .  S
C974        H976   1.087       .  S
C977        C978   1.213       .  T
C979        C980   1.213       .  T
C981        C982   1.207       .  T
C983        C984   1.212       .  T
C985        C986   1.219       .  T
C987        C988   1.212       .  T
C989        C990   1.215       .  T
C991        C992   1.213       .  T
