geometry optimzed in LAMMPS
_audit_creation_date              2020-11-30 
_audit_creation_method            'lammps2cif' 
_symmetry_space_group_name_H-M    'P1' 
_symmetry_Int_Tables_number       1 
_symmetry_cell_setting            triclinic 
loop_ 
_symmetry_equiv_pos_as_xyz 
  x,y,z 
_cell_length_a                    37.06937627 
_cell_length_b                    36.97151689953177 
_cell_length_c                    37.55233890199286 
_cell_angle_alpha                 90.00424922102751 
_cell_angle_beta                  89.9729037431977 
_cell_angle_gamma                 90.0266506971951 
loop_ 
_atom_site_label 
_atom_site_type_symbol 
_atom_site_fract_x 
_atom_site_fract_y 
_atom_site_fract_z 
_atom_site_charge 
C1          C  0.42202645  0.41740175  0.42445525     0.44300
N2          N  0.46494669  0.45404178  0.43687205     0.03200
C3          C  0.57080619  0.45592961  0.58910928    -0.04700
H4          H  0.43483639  0.47385538  0.61301896     0.08700
C5          C  0.44098926  0.59147267  0.54073975    -0.05000
Co6        Co  0.50468144  0.43210606  0.50275349     0.74200
N7          N  0.46614440  0.46257247  0.56577513    -0.24200
Co8        Co  0.50573386  0.50260207  0.56371695     0.74100
C9          C  0.42459683  0.58026416  0.57424517     0.44400
N10         N  0.46594148  0.56158861  0.45507100     0.02800
N11         N  0.46673026  0.54312845  0.56095416     0.02900
N12         N  0.56894724  0.41011826  0.54913896    -0.45100
H13         H  0.43349141  0.38253795  0.47391332     0.08700
N14         N  0.46558458  0.43571022  0.54258714     0.03200
N15         N  0.54538718  0.54254494  0.56035510     0.02900
C16         C  0.58785502  0.57952498  0.57332736     0.44500
N17         N  0.46565851  0.53466127  0.43194390    -0.23700
C18         C  0.57050177  0.40631689  0.45743522    -0.04600
N19         N  0.43987357  0.44687735  0.41272410    -0.44800
N20         N  0.57011730  0.54988403  0.58478385    -0.45000
C21         C  0.58740973  0.41802384  0.42437168     0.44300
N22         N  0.54429106  0.43503856  0.54207322     0.03200
N23         N  0.54412542  0.53403322  0.43134311    -0.23700
N24         N  0.46515826  0.43040925  0.46323785    -0.24200
N25         N  0.54477269  0.56088683  0.45452841     0.02800
H26         H  0.57551538  0.52250000  0.38420707     0.08700
H27         H  0.57651582  0.61447954  0.52388343     0.08800
N28         N  0.54459816  0.46192055  0.56522899    -0.24200
N29         N  0.46679424  0.56679581  0.53460352    -0.23800
N30         N  0.54377730  0.45376323  0.43644612     0.03200
C31         C  0.42283607  0.42357067  0.57894628     0.44600
C32         C  0.43930675  0.54044761  0.40816288    -0.05100
N33         N  0.54524564  0.56622561  0.53401775    -0.23800
H34         H  0.43559641  0.61510238  0.52462360     0.08700
N35         N  0.44036500  0.41139206  0.54985639    -0.45100
H36         H  0.43349735  0.52379412  0.38518650     0.08700
C37         C  0.58768618  0.57276470  0.41823712     0.44400
C38         C  0.43890009  0.40606934  0.45765002    -0.04600
Co39       Co  0.50457563  0.49403986  0.43347393     0.73800
N40         N  0.44105119  0.58632583  0.44809028    -0.44800
C41         C  0.58704380  0.42190249  0.57802649     0.44700
N42         N  0.56918945  0.44714889  0.41250626    -0.44800
Co43       Co  0.50569371  0.56458537  0.49444119     0.73900
C44         C  0.57125439  0.59077015  0.53994041    -0.05100
C45         C  0.44001810  0.45717671  0.58991260    -0.04700
N46         N  0.54378851  0.43016760  0.46284364    -0.24200
N47         N  0.44220359  0.55053359  0.58556812    -0.44900
H48         H  0.57652305  0.47243402  0.61221229     0.08700
C49         C  0.57032551  0.53926797  0.40724898    -0.05100
Cl50       Cl  0.50513797  0.49834693  0.49860505    -0.48100
C51         C  0.42291043  0.57438514  0.41926132     0.44500
H52         H  0.57649236  0.38312763  0.47395919     0.08700
N53         N  0.57015981  0.58505262  0.44729776    -0.44800
C54         C  0.08240802  0.41710667  0.91881405     0.44300
N55         N  0.06818527  0.45480836  0.95972015     0.03200
C56         C  0.91268603  0.45365748  0.06289164    -0.04700
H57         H  0.88955024  0.47061634  0.92856517     0.08700
C58         C  0.96091762  0.58931230  0.93390157    -0.05000
Co59       Co  0.00151283  0.43172244  0.99862157     0.74200
N60         N  0.93738907  0.46047942  0.95980867    -0.24200
Co61       Co  0.93827031  0.50075243  0.99858164     0.74100
C62         C  0.92756009  0.57721022  0.91725118     0.44400
N63         N  0.04755594  0.56231232  0.95995420     0.02800
N64         N  0.94078484  0.54102266  0.95972548     0.02900
N65         N  0.95434398  0.40891167  0.06177111    -0.45100
H66         H  0.03287214  0.38150105  0.93025018     0.08700
N67         N  0.96140025  0.43410035  0.95962014     0.03200
N68         N  0.94047757  0.54100933  0.03741595     0.02900
C69         C  0.92655548  0.57775977  0.07919488     0.44500
N70         N  0.07157942  0.53593223  0.95987366    -0.23700
C71         C  0.04793116  0.40701991  0.06361195    -0.04600
N72         N  0.09338013  0.44734377  0.93575899    -0.44800
N73         N  0.91548722  0.54789379  0.06173380    -0.45000
C74         C  0.08134319  0.41926469  0.08009841     0.44300
N75         N  0.96120487  0.43391767  0.03739146     0.03200
N76         N  0.07145245  0.53553070  0.03732819    -0.23700
N77         N  0.04194660  0.43061774  0.96006078    -0.24200
N78         N  0.04739512  0.56186816  0.03773710     0.02800
H79         H  0.11923208  0.52512214  0.06858677     0.08700
H80         H  0.97607598  0.61358095  0.06823231     0.08800
N81         N  0.93709121  0.46020616  0.03727657    -0.24200
N82         N  0.96702602  0.56520767  0.95989721    -0.23800
N83         N  0.06802891  0.45509798  0.03738492     0.03200
C84         C  0.92506967  0.42094934  0.91729052     0.44600
C85         C  0.09618973  0.54276540  0.93452737    -0.05100
N86         N  0.96672964  0.56518358  0.03735393    -0.23800
H87         H  0.97697098  0.61311440  0.92844837     0.08700
N88         N  0.95465348  0.40944710  0.93486318    -0.45100
H89         H  0.12017401  0.52696391  0.92935211     0.08700
C90         C  0.08372124  0.57471125  0.08019715     0.44400
C91         C  0.04862592  0.40565289  0.93501782    -0.04600
Co92       Co  0.07045567  0.49527628  0.99848359     0.73800
N93         N  0.05472580  0.58766360  0.93600161    -0.44800
C94         C  0.92451465  0.41993715  0.07922086     0.44700
N95         N  0.09261372  0.44877269  0.06220703    -0.44800
Co96       Co  0.00722119  0.56433385  0.99875845     0.73900
C97         C  0.96020018  0.58962319  0.06294531    -0.05100
C98         C  0.91324433  0.45444556  0.93391636    -0.04700
N99         N  0.04176473  0.43093881  0.03744484    -0.24200
N100        N  0.91622539  0.54756908  0.93492070    -0.44900
H101        H  0.88881443  0.46958733  0.06819604     0.08700
C102        C  0.09559591  0.54138811  0.06327084    -0.05100
Cl103      Cl  0.00437019  0.49802368  0.99859211    -0.48100
C104        C  0.08463779  0.57677703  0.91858651     0.44500
H105        H  0.03185606  0.38329476  0.06931893     0.08700
N106        N  0.05408472  0.58630527  0.06273775    -0.44800
C107        C  0.75453580  0.24808146  0.74839836    -0.00600
C108        C  0.42781664  0.07901341  0.91737153     0.44300
N109        N  0.44024478  0.04288752  0.96005777     0.03200
C110        C  0.59391556  0.04333486  0.06502522    -0.04700
H111        H  0.61881661  0.02779383  0.93016677     0.08700
C112        C  0.54812840  0.90872693  0.93417755    -0.04600
Co113      Co  0.50624294  0.06594595  0.99970579     0.74200
N114        N  0.57080131  0.03762868  0.96131712    -0.24200
Co115      Co  0.56950729  0.99695607  0.99976778     0.74100
C116        C  0.58175571  0.92105986  0.91811405     0.44400
N117        N  0.46067972  0.93595791  0.95937177     0.02800
N118        N  0.56760399  0.95698008  0.96056181     0.02900
N119        N  0.55224947  0.08807886  0.06374112    -0.45100
H120        H  0.47711048  0.11484390  0.92919729     0.08700
N121        N  0.54677068  0.06398479  0.96118086     0.03200
N122        N  0.56699001  0.95629623  0.03821554     0.02900
C123        C  0.58128446  0.91887673  0.07936647     0.44500
N124        N  0.43673666  0.96240743  0.95958607    -0.23700
C125        C  0.45939302  0.09009404  0.06452614    -0.04600
N126        N  0.41613277  0.04938698  0.93482838    -0.44800
N127        N  0.59201889  0.94914725  0.06239523    -0.45000
C128        C  0.42605405  0.07754449  0.08089685     0.44300
N129        N  0.54594768  0.06343466  0.03888502     0.03200
N130        N  0.43594087  0.96167424  0.03702027    -0.23700
N131        N  0.46647998  0.06705207  0.96060388    -0.24200
N132        N  0.45995283  0.93527752  0.03726945     0.02800
H133        H  0.38768280  0.97155858  0.06779706     0.08700
H134        H  0.53204247  0.88282763  0.06767337     0.08800
N135        N  0.57006108  0.03714627  0.03885896    -0.24200
N136        N  0.54144080  0.93269622  0.96020672    -0.23800
N137        N  0.43944323  0.04222690  0.03782657     0.03200
C138        C  0.58331171  0.07754792  0.91915391     0.44600
C139        C  0.41286164  0.95678275  0.93335652    -0.05100
N140        N  0.54089479  0.93193711  0.03769871    -0.23800
H141        H  0.53226887  0.88489126  0.92833561     0.08700
N142        N  0.55359389  0.08883012  0.93663414    -0.45100
H143        H  0.38936717  0.97318696  0.92783729     0.08700
C144        C  0.42297276  0.92170891  0.07902700     0.44400
C145        C  0.46085201  0.09115082  0.93452011    -0.04600
Co146      Co  0.43741568  0.00237903  0.99862328     0.73800
N147        N  0.45416942  0.91166992  0.93417928    -0.44800
C148        C  0.58168490  0.07678465  0.08160623     0.44700
N149        N  0.41484063  0.04818705  0.06274172    -0.44800
Co150      Co  0.50065950  0.93322917  0.99865326     0.73900
C151        C  0.54765551  0.90706922  0.06288745    -0.05100
C152        C  0.59510802  0.04392525  0.93558976    -0.04700
N153        N  0.46562349  0.06646402  0.03812838    -0.24200
N154        N  0.59259455  0.95069051  0.93608466    -0.44900
H155        H  0.61763663  0.02729541  0.07062849     0.08700
C156        C  0.41140782  0.95538814  0.06255120    -0.05100
Cl157      Cl  0.50346640  0.99959747  0.99921307    -0.48100
C158        C  0.42477834  0.92347855  0.91645040     0.44500
H159        H  0.47550020  0.11370350  0.07059053     0.08700
N160        N  0.45285359  0.91041205  0.06175229    -0.44800
C161        C  0.25527679  0.74923134  0.74834241    -0.00600
C162        C  0.92471912  0.07988414  0.42341143     0.44300
N163        N  0.96051525  0.03652116  0.43635578     0.03200
C164        C  0.96114201  0.93365623  0.59065629    -0.04700
H165        H  0.97884002  0.07064182  0.61205094     0.08700
C166        C  0.09684616  0.06298597  0.54042834    -0.05000
Co167      Co  0.93818896  0.99828513  0.50295441     0.74200
N168        N  0.96810691  0.03825529  0.56534755    -0.24200
Co169      Co  0.00803995  0.99849948  0.56426675     0.74100
C170        C  0.08573022  0.07982668  0.57373181     0.44400
N171        N  0.06745612  0.03641004  0.45491998     0.02800
N172        N  0.04849204  0.03758297  0.56090937     0.02900
N173        N  0.91585134  0.93477930  0.55021882    -0.45100
H174        H  0.88973033  0.06966763  0.47300646     0.08700
N175        N  0.94153326  0.03830700  0.54192906     0.03200
N176        N  0.04785071  0.95863373  0.56161970     0.02900
C177        C  0.08366918  0.91512623  0.57426445     0.44500
N178        N  0.04079140  0.03586643  0.43159414    -0.23700
C179        C  0.91207197  0.93183734  0.45887683    -0.04600
N180        N  0.95386273  0.06148001  0.41191020    -0.44800
N181        N  0.05445071  0.93340570  0.58583291    -0.45000
C182        C  0.92351283  0.91418061  0.42612655     0.44300
N183        N  0.94074279  0.95944414  0.54303390     0.03200
N184        N  0.04036777  0.95725750  0.43289939    -0.23700
N185        N  0.93690141  0.03700380  0.46268728    -0.24200
N186        N  0.06707177  0.95748082  0.45615652     0.02800
H187        H  0.02970255  0.92486382  0.38620362     0.08700
H188        H  0.11874952  0.92584414  0.52483103     0.08800
N189        N  0.96735902  0.95955345  0.56639275    -0.24200
N190        N  0.07213734  0.03714032  0.53458923    -0.23800
N191        N  0.95999507  0.95748179  0.43767023     0.03200
C192        C  0.92901042  0.08189386  0.57726969     0.44600
C193        C  0.04671234  0.06151657  0.40702337    -0.05100
N194        N  0.07157623  0.95845388  0.53535811    -0.23800
H195        H  0.12056511  0.06797156  0.52437496     0.08700
N196        N  0.91717692  0.06367100  0.54846501    -0.45100
H197        H  0.03029066  0.06652439  0.38374047     0.08700
C198        C  0.07978881  0.91404248  0.42072914     0.44400
C199        C  0.91304475  0.06357805  0.45675349    -0.04600
Co200      Co  0.00031646  0.99675243  0.43394133     0.73800
N201        N  0.09217005  0.06117512  0.44729632    -0.44800
C202        C  0.92730081  0.91715629  0.57950200     0.44700
N203        N  0.95294859  0.93179116  0.41406370    -0.44800
Co204      Co  0.07026531  0.99743494  0.49519150     0.73900
C205        C  0.09542987  0.93181680  0.54111974    -0.05100
C206        C  0.96245102  0.06494266  0.58889574    -0.04700
N207        N  0.93632253  0.95826906  0.46394431    -0.24200
N208        N  0.05600543  0.06238899  0.58526333    -0.44900
H209        H  0.97743803  0.92822558  0.61393301     0.08700
C210        C  0.04612090  0.93064163  0.40931833    -0.05100
Cl211      Cl  0.00421876  0.99777003  0.49909405    -0.48100
C212        C  0.08045917  0.07838200  0.41780025     0.44500
H213        H  0.88864305  0.92667127  0.47528569     0.08700
N214        N  0.09163629  0.93236890  0.44946250    -0.44800
C215        C  0.75475062  0.74860612  0.24888873    -0.00600
C216        C  0.25383071  0.24876196  0.24902351    -0.00600
C217        C  0.75445860  0.24782645  0.25024022    -0.00600
C218        C  0.25405670  0.74773663  0.24947058    -0.00600
C219        C  0.25514338  0.24816506  0.74801305    -0.00600
C220        C  0.75418928  0.74888300  0.75008888    -0.00600
C221        C  0.19207471  0.18452096  0.68321351     0.18900
C222        C  0.16532439  0.16202672  0.69756206    -0.10200
C223        C  0.14341156  0.14138987  0.67501142    -0.11100
C224        C  0.14814180  0.14316301  0.63801131     0.20400
C225        C  0.17504734  0.16548007  0.62369919    -0.13100
C226        C  0.19695097  0.18610767  0.64624090    -0.11400
C227        C  0.12561367  0.12190810  0.61477900     0.01400
C228        C  0.10710496  0.10340761  0.59563328    -0.31400
C229        C  0.21417005  0.20635539  0.70630057     0.02800
C230        C  0.23260306  0.22512707  0.72528884    -0.33100
H231        H  0.16132201  0.16056758  0.72610573     0.13800
H232        H  0.12277448  0.12414052  0.68639234     0.13700
H233        H  0.17903416  0.16698223  0.59515451     0.13500
H234        H  0.21756047  0.20338956  0.63485340     0.12500
C235        C  0.18639408  0.18700648  0.31135161     0.18900
C236        C  0.14909834  0.18529494  0.30541310    -0.10200
C237        C  0.12719101  0.16427655  0.32769256    -0.11100
C238        C  0.14247201  0.14489296  0.35601734     0.20400
C239        C  0.17975020  0.14669555  0.36194528    -0.13100
C240        C  0.20162923  0.16768532  0.33969158    -0.11400
C241        C  0.12013219  0.12259951  0.37857473     0.01400
C242        C  0.10188829  0.10301923  0.39698283    -0.31400
C243        C  0.20912997  0.20864094  0.28863728     0.02800
C244        C  0.22902293  0.22672608  0.27042079    -0.33100
H245        H  0.13700113  0.20013621  0.28359889     0.13800
H246        H  0.09841835  0.16303587  0.32277236     0.13700
H247        H  0.19190621  0.13178298  0.38367473     0.13500
H248        H  0.23041581  0.16882028  0.34455758     0.12500
C249        C  0.86394625  0.85117952  0.64017413     0.18900
C250        C  0.87232032  0.84732533  0.67635366    -0.10200
C251        C  0.85023679  0.82643028  0.69847237    -0.11100
C252        C  0.81963040  0.80929248  0.68454114     0.20400
C253        C  0.81125402  0.81306950  0.64833281    -0.13100
C254        C  0.83335889  0.83399029  0.62619056    -0.11400
C255        C  0.79677665  0.78806971  0.70746683     0.01400
C256        C  0.77762884  0.77042028  0.72681541    -0.31400
C257        C  0.88648601  0.87324100  0.61769677     0.02800
C258        C  0.90537281  0.89263912  0.59981137    -0.33100
H259        H  0.89583719  0.86056852  0.68747405     0.13800
H260        H  0.85695582  0.82372632  0.72642194     0.13700
H261        H  0.78763239  0.79995814  0.63728116     0.13500
H262        H  0.82655847  0.83685655  0.59827845     0.12500
C263        C  0.18897983  0.80949840  0.31417537     0.18900
C264        C  0.20159074  0.82124773  0.34740766    -0.10200
C265        C  0.17906992  0.84132783  0.36986362    -0.11100
C266        C  0.14382522  0.84971459  0.35920169     0.20400
C267        C  0.13125819  0.83804002  0.32594376    -0.13100
C268        C  0.15376931  0.81797077  0.30349718    -0.11400
C269        C  0.12080040  0.87090171  0.38198662     0.01400
C270        C  0.10175623  0.88975247  0.40024582    -0.31400
C271        C  0.21196367  0.78844189  0.29121093     0.02800
C272        C  0.23099299  0.77032706  0.27215948    -0.33100
H273        H  0.22876428  0.81485443  0.35595064     0.13800
H274        H  0.18912946  0.85034476  0.39545527     0.13700
H275        H  0.10411536  0.84449745  0.31735823     0.13500
H276        H  0.14372623  0.80903243  0.27787607     0.12500
C277        C  0.81884285  0.80869637  0.31603940     0.18900
C278        C  0.84031155  0.83689377  0.30290801    -0.10200
C279        C  0.86199572  0.85697145  0.32611611    -0.11100
C280        C  0.86237178  0.84897051  0.36259247     0.20400
C281        C  0.84087126  0.82078566  0.37576937    -0.13100
C282        C  0.81916656  0.80068283  0.35253447    -0.11400
C283        C  0.88443946  0.87012823  0.38635198     0.01400
C284        C  0.90265167  0.88931319  0.40512686    -0.31400
C285        C  0.79653292  0.78804193  0.29208410     0.02800
C286        C  0.77778014  0.77053986  0.27222479    -0.33100
H287        H  0.84026335  0.84336449  0.27477070     0.13800
H288        H  0.87840955  0.87877299  0.31563674     0.13700
H289        H  0.84083804  0.81441934  0.40392783     0.13500
H290        H  0.80264679  0.77895677  0.36299894     0.12500
C291        C  0.81959654  0.18672555  0.31530262     0.18900
C292        C  0.80573940  0.17247069  0.34706407    -0.10200
C293        C  0.82794173  0.15223791  0.36964314    -0.11100
C294        C  0.86412468  0.14620535  0.36060094     0.20400
C295        C  0.87805197  0.16066301  0.32895269    -0.13100
C296        C  0.85584297  0.18090347  0.30636797    -0.11400
C297        C  0.88658377  0.12434569  0.38329727     0.01400
C298        C  0.90455214  0.10482151  0.40191354    -0.31400
C299        C  0.79666151  0.20733808  0.29195629     0.02800
C300        C  0.77749785  0.22509300  0.27274809    -0.33100
H301        H  0.77777807  0.17686221  0.35427832     0.13800
H302        H  0.81685742  0.14111210  0.39399378     0.13700
H303        H  0.90595909  0.15609295  0.32164169     0.13500
H304        H  0.86686155  0.19185992  0.28191376     0.12500
C305        C  0.14360616  0.84780309  0.63690840     0.18900
C306        C  0.17359721  0.82947637  0.62306366    -0.10200
C307        C  0.19582545  0.80916868  0.64560945    -0.11100
C308        C  0.18819440  0.80709153  0.68211992     0.20400
C309        C  0.15809875  0.82524514  0.69591713    -0.13100
C310        C  0.13587922  0.84554165  0.67338236    -0.11400
C311        C  0.21139008  0.78668443  0.70546070     0.01400
C312        C  0.23102510  0.76978170  0.72498707    -0.31400
C313        C  0.12148100  0.86989372  0.61401096     0.02800
C314        C  0.10368888  0.88973979  0.59549734    -0.33100
H315        H  0.17994979  0.83113042  0.59494946     0.13800
H316        H  0.21904367  0.79528533  0.63463138     0.13700
H317        H  0.15194445  0.82388235  0.72408925     0.13500
H318        H  0.11286958  0.85970270  0.68443644     0.12500
C319        C  0.68686041  0.18435155  0.18955852     0.18900
C320        C  0.69209035  0.18245390  0.15265257    -0.10200
C321        C  0.66959631  0.16076090  0.13170077    -0.11100
C322        C  0.64170784  0.14079763  0.14750031     0.20400
C323        C  0.63625571  0.14289092  0.18438860    -0.13100
C324        C  0.65878043  0.16461661  0.20536928    -0.11400
C325        C  0.61921460  0.11784473  0.12578556     0.01400
C326        C  0.60151876  0.09880314  0.10637013    -0.31400
C327        C  0.71046658  0.20636437  0.21107734     0.02800
C328        C  0.73045816  0.22494215  0.22873428    -0.33100
H329        H  0.71365573  0.19760196  0.14010457     0.13800
H330        H  0.67408269  0.15938547  0.10322456     0.13700
H331        H  0.61478147  0.12760044  0.19692291     0.13500
H332        H  0.65442558  0.16589139  0.23387118     0.12500
C333        C  0.36269529  0.13586034  0.14862527     0.18900
C334        C  0.32514640  0.13146298  0.14769221    -0.10200
C335        C  0.30292597  0.15401352  0.16807595    -0.11100
C336        C  0.31815050  0.18108709  0.18945698     0.20400
C337        C  0.35571630  0.18516637  0.19071443    -0.13100
C338        C  0.37792594  0.16262657  0.17034185    -0.11400
C339        C  0.29531047  0.20489731  0.20983001     0.01400
C340        C  0.27646705  0.22490829  0.22715891    -0.31400
C341        C  0.38548083  0.11396109  0.12625364     0.02800
C342        C  0.40432948  0.09677555  0.10627634    -0.33100
H343        H  0.31305961  0.11092597  0.13092293     0.13800
H344        H  0.27392432  0.15056251  0.16692628     0.13700
H345        H  0.36779792  0.20595901  0.20718109     0.13500
H346        H  0.40690765  0.16634338  0.17119926     0.12500
C347        C  0.31823699  0.81396509  0.18780957     0.18900
C348        C  0.30376932  0.84506757  0.17193869    -0.10200
C349        C  0.32563310  0.86749689  0.15098032    -0.11100
C350        C  0.36212226  0.85899232  0.14577221     0.20400
C351        C  0.37662721  0.82801807  0.16183179    -0.13100
C352        C  0.35476859  0.80559569  0.18278397    -0.11400
C353        C  0.38441785  0.88153715  0.12333788     0.01400
C354        C  0.40253812  0.90000076  0.10369144    -0.31400
C355        C  0.29564852  0.79059115  0.20908956     0.02800
C356        C  0.27685266  0.77104638  0.22706645    -0.33100
H357        H  0.27558933  0.85187757  0.17562809     0.13800
H358        H  0.31405089  0.89131129  0.13867707     0.13700
H359        H  0.40475363  0.82108636  0.15798091     0.13500
H360        H  0.36630289  0.78166718  0.19491899     0.12500
C361        C  0.69071208  0.81761125  0.80966353     0.18900
C362        C  0.65348059  0.81899114  0.80331209    -0.10200
C363        C  0.63137728  0.84137606  0.82400972    -0.11100
C364        C  0.64634496  0.86257033  0.85119842     0.20400
C365        C  0.68366599  0.86158741  0.85724354    -0.13100
C366        C  0.70578412  0.83918510  0.83653136    -0.11400
C367        C  0.62328528  0.88429240  0.87362504     0.01400
C368        C  0.60403768  0.90148977  0.89331335    -0.31400
C369        C  0.71321880  0.79361997  0.78901583     0.02800
C370        C  0.73169927  0.77326175  0.77163411    -0.33100
H371        H  0.64149596  0.80249120  0.78261286     0.13800
H372        H  0.60258365  0.84183328  0.81908822     0.13700
H373        H  0.69558350  0.87778929  0.87820394     0.13500
H374        H  0.73452739  0.83841008  0.84169785     0.12500
C375        C  0.32091958  0.18346084  0.80885239     0.18900
C376        C  0.30617136  0.15397348  0.82723895    -0.10200
C377        C  0.32835093  0.13183460  0.84802231    -0.11100
C378        C  0.36537301  0.13907655  0.85048199     0.20400
C379        C  0.38013385  0.16851449  0.83203051    -0.13100
C380        C  0.35795256  0.19065323  0.81124471    -0.11400
C381        C  0.38800034  0.11689395  0.87265206     0.01400
C382        C  0.40651587  0.09906111  0.89232794    -0.31400
C383        C  0.29806860  0.20632788  0.78760345     0.02800
C384        C  0.27879410  0.22535407  0.76976056    -0.33100
H385        H  0.27756676  0.14818026  0.82558577     0.13800
H386        H  0.31663338  0.10922675  0.86229215     0.13700
H387        H  0.40869737  0.17444092  0.83386003     0.13500
H388        H  0.36962780  0.21339401  0.79714787     0.12500
C389        C  0.64732950  0.85780570  0.14266203     0.18900
C390        C  0.64246784  0.82021192  0.14334172    -0.10200
C391        C  0.66465577  0.79849264  0.16460064    -0.11100
C392        C  0.69190276  0.81417851  0.18535663     0.20400
C393        C  0.69710758  0.85174537  0.18435979    -0.13100
C394        C  0.67489053  0.87349509  0.16307181    -0.11400
C395        C  0.71409091  0.79170728  0.20791496     0.01400
C396        C  0.73230307  0.77238792  0.22666392    -0.31400
C397        C  0.62388076  0.88010199  0.12117301     0.02800
C398        C  0.60411364  0.89806150  0.10267487    -0.33100
H399        H  0.62137786  0.80771356  0.12761421     0.13800
H400        H  0.66039888  0.76950250  0.16504230     0.13700
H401        H  0.71813293  0.86421866  0.20019605     0.13500
H402        H  0.67904629  0.90250022  0.16270267     0.12500
C403        C  0.36455561  0.86316404  0.84732158     0.18900
C404        C  0.32836210  0.87256701  0.84165401    -0.10200
C405        C  0.30615762  0.85044214  0.82076202    -0.11100
C406        C  0.32002793  0.81877921  0.80544675     0.20400
C407        C  0.35634667  0.80970738  0.81065845    -0.13100
C408        C  0.37853328  0.83181142  0.83153730    -0.11400
C409        C  0.29692088  0.79506320  0.78520059     0.01400
C410        C  0.27797046  0.77447759  0.76862204    -0.31400
C411        C  0.38694396  0.88489146  0.87035077     0.02800
C412        C  0.40492798  0.90255115  0.89076624    -0.33100
H413        H  0.31720716  0.89670475  0.85375732     0.13800
H414        H  0.27812932  0.85776300  0.81693200     0.13700
H415        H  0.36738611  0.78531384  0.79896103     0.13500
H416        H  0.40642304  0.82420728  0.83575434     0.12500
C417        C  0.81981173  0.18720977  0.68310739     0.18900
C418        C  0.81980843  0.19355571  0.64629742    -0.10200
C419        C  0.84249195  0.17350278  0.62395240    -0.11100
C420        C  0.86530191  0.14704779  0.63833906     0.20400
C421        C  0.86529323  0.14074933  0.67513793    -0.13100
C422        C  0.84263095  0.16077759  0.69745759    -0.11400
C423        C  0.88828815  0.12585088  0.61548910     0.01400
C424        C  0.90724189  0.10667866  0.59743733    -0.31400
C425        C  0.79661787  0.20791362  0.70617396     0.02800
C426        C  0.77747459  0.22564185  0.72546022    -0.33100
H427        H  0.80229061  0.21394559  0.63490647     0.13800
H428        H  0.84218307  0.17854677  0.59553446     0.13700
H429        H  0.88273281  0.12030076  0.68655092     0.13500
H430        H  0.84288651  0.15564783  0.72586399     0.12500
C431        C  0.68961957  0.18391793  0.81106243     0.18900
C432        C  0.65217363  0.18418917  0.80586987    -0.10200
C433        C  0.62983305  0.16245614  0.82700304    -0.11100
C434        C  0.64483445  0.14033728  0.85343607     0.20400
C435        C  0.68227327  0.14013469  0.85866457    -0.13100
C436        C  0.70460235  0.16185948  0.83754221    -0.11400
C437        C  0.62193872  0.11807100  0.87541951     0.01400
C438        C  0.60366718  0.09947316  0.89473049    -0.31400
C439        C  0.71262880  0.20617858  0.78921039     0.02800
C440        C  0.73173454  0.22492288  0.77081127    -0.33100
H441        H  0.64027676  0.20116166  0.78550086     0.13800
H442        H  0.60093469  0.16291099  0.82275677     0.13700
H443        H  0.69418272  0.12320949  0.87906686     0.13500
H444        H  0.73349905  0.16144335  0.84183385     0.12500
C445        C  0.14584829  0.35987767  0.14597942     0.18900
C446        C  0.18141861  0.37073263  0.15288553    -0.10200
C447        C  0.20414093  0.34879838  0.17341155    -0.11100
C448        C  0.19139966  0.31588743  0.18706983     0.20400
C449        C  0.15579806  0.30517139  0.18029134    -0.13100
C450        C  0.13310990  0.32707248  0.15979797    -0.11400
C451        C  0.21461879  0.29299398  0.20803549     0.01400
C452        C  0.23289845  0.27312345  0.22608475    -0.31400
C453        C  0.12265212  0.38185042  0.12405395     0.02800
C454        C  0.10340605  0.39935797  0.10471045    -0.33100
H455        H  0.19161054  0.39599481  0.14226864     0.13800
H456        H  0.23159880  0.35740790  0.17850831     0.13700
H457        H  0.14562722  0.27982530  0.19074162     0.13500
H458        H  0.10571318  0.31833816  0.15457211     0.12500
C459        C  0.14459207  0.63663756  0.14740564     0.18900
C460        C  0.13315299  0.67147494  0.15681318    -0.10200
C461        C  0.15539134  0.69381329  0.17739820    -0.11100
C462        C  0.18925327  0.68149685  0.18868810     0.20400
C463        C  0.20059432  0.64651932  0.17957522    -0.13100
C464        C  0.17833610  0.62415964  0.15896792    -0.11400
C465        C  0.21232043  0.70484550  0.20941001     0.01400
C466        C  0.23131803  0.72448636  0.22702572    -0.31400
C467        C  0.12216015  0.61421964  0.12505237     0.02800
C468        C  0.10396492  0.59605780  0.10524795    -0.33100
H469        H  0.10718369  0.68147260  0.14799259     0.13800
H470        H  0.14628544  0.72075568  0.18431251     0.13700
H471        H  0.22668470  0.63664583  0.18818982     0.13500
H472        H  0.18753951  0.59731294  0.15182040     0.12500
C473        C  0.81830639  0.68392757  0.18548391     0.18900
C474        C  0.82008728  0.64668260  0.19223645    -0.10200
C475        C  0.84213357  0.62448817  0.17129799    -0.11100
C476        C  0.86250910  0.63943417  0.14350647     0.20400
C477        C  0.86060539  0.67665706  0.13667235    -0.13100
C478        C  0.83856576  0.69884294  0.15760332    -0.11400
C479        C  0.88525476  0.61668352  0.12189383     0.01400
C480        C  0.90425005  0.59836963  0.10303042    -0.31400
C481        C  0.79598498  0.70684563  0.20733227     0.02800
C482        C  0.77742209  0.72590736  0.22592941    -0.33100
H483        H  0.80453338  0.63484628  0.21371465     0.13800
H484        H  0.84332895  0.59574586  0.17679547     0.13700
H485        H  0.87617953  0.68851259  0.11522065     0.13500
H486        H  0.83739950  0.72758999  0.15212289     0.12500
C487        C  0.19227513  0.68623966  0.81418954     0.18900
C488        C  0.20596789  0.66904104  0.84458569    -0.10200
C489        C  0.18351922  0.64703373  0.86538566    -0.11100
C490        C  0.14725341  0.64206182  0.85591594     0.20400
C491        C  0.13354421  0.65943339  0.82563899    -0.13100
C492        C  0.15597693  0.68142811  0.80485622    -0.11400
C493        C  0.12426100  0.61901698  0.87714256     0.01400
C494        C  0.10566456  0.59963638  0.89545697    -0.31400
C495        C  0.21535488  0.70847861  0.79227261     0.02800
C496        C  0.23379330  0.72696889  0.77291868    -0.33100
H497        H  0.23396942  0.67251713  0.85210804     0.13800
H498        H  0.19445620  0.63379836  0.88874015     0.13700
H499        H  0.10557904  0.65586969  0.81802594     0.13500
H500        H  0.14506109  0.69456080  0.78143244     0.12500
C501        C  0.81829954  0.68412900  0.81289432     0.18900
C502        C  0.81158914  0.64684562  0.81452651    -0.10200
C503        C  0.83405399  0.62435068  0.83469640    -0.11100
C504        C  0.86338224  0.63902202  0.85330149     0.20400
C505        C  0.87004838  0.67630803  0.85171372    -0.13100
C506        C  0.84759097  0.69879433  0.83155256    -0.11400
C507        C  0.88634333  0.61603672  0.87443695     0.01400
C508        C  0.90541861  0.59769968  0.89318509    -0.31400
C509        C  0.79542292  0.70721549  0.79176425     0.02800
C510        C  0.77656872  0.72625655  0.77342348    -0.33100
H511        H  0.78905122  0.63518549  0.80018661     0.13800
H512        H  0.82855482  0.59559097  0.83580134     0.13700
H513        H  0.89257086  0.68798165  0.86606908     0.13500
H514        H  0.85308442  0.72755747  0.83047360     0.12500
C515        C  0.19087917  0.31076814  0.81269708     0.18900
C516        C  0.19275422  0.34851384  0.80987210    -0.10200
C517        C  0.17074488  0.37033636  0.83119474    -0.11100
C518        C  0.14672259  0.35454299  0.85546293     0.20400
C519        C  0.14496405  0.31677564  0.85842401    -0.13100
C520        C  0.16698863  0.29493975  0.83708710    -0.11400
C521        C  0.12391637  0.37708709  0.87724744     0.01400
C522        C  0.10490888  0.39578061  0.89575121    -0.31400
C523        C  0.21326592  0.28839264  0.79037855     0.02800
C524        C  0.23208678  0.27005469  0.77133972    -0.33100
H525        H  0.21113387  0.36105297  0.79112640     0.13800
H526        H  0.17239125  0.39948226  0.82870126     0.13700
H527        H  0.12653894  0.30424202  0.87712883     0.13500
H528        H  0.16531834  0.26578606  0.83952040     0.12500
C529        C  0.86379352  0.35575048  0.14466907     0.18900
C530        C  0.87384606  0.31988996  0.15169888    -0.10200
C531        C  0.85170297  0.29773690  0.17266564    -0.11100
C532        C  0.81935587  0.31130049  0.18668599     0.20400
C533        C  0.80936624  0.34715971  0.17970919    -0.13100
C534        C  0.83148941  0.36929383  0.15876361    -0.11400
C535        C  0.79647280  0.28859833  0.20831448     0.01400
C536        C  0.77729225  0.27002609  0.22685581    -0.31400
C537        C  0.88620651  0.37850528  0.12257738     0.02800
C538        C  0.90415284  0.39760011  0.10337654    -0.33100
H539        H  0.89870347  0.30904946  0.14090890     0.13800
H540        H  0.85976009  0.27007797  0.17789262     0.13700
H541        H  0.78446458  0.35798588  0.19041512     0.13500
H542        H  0.82335988  0.39691741  0.15347904     0.12500
C543        C  0.81876601  0.31304383  0.81082724     0.18900
C544        C  0.83435158  0.34418572  0.79609471    -0.10200
C545        C  0.85643521  0.36641422  0.81695732    -0.11100
C546        C  0.86306735  0.35758431  0.85264977     0.20400
C547        C  0.84734640  0.32652333  0.86741407    -0.13100
C548        C  0.82527057  0.30430149  0.84655673    -0.11400
C549        C  0.88587661  0.38033473  0.87419779     0.01400
C550        C  0.90440418  0.39902494  0.89315582    -0.31400
C551        C  0.79619382  0.29007724  0.78928908     0.02800
C552        C  0.77734643  0.27097574  0.77101921    -0.33100
H553        H  0.82947305  0.35123811  0.76851013     0.13800
H554        H  0.86835663  0.39039618  0.80527295     0.13700
H555        H  0.85220162  0.31946745  0.89500350     0.13500
H556        H  0.81333530  0.28032490  0.85824903     0.12500
C557        C  0.69238903  0.68404211  0.68506387     0.18900
C558        C  0.66762136  0.65896089  0.69871529    -0.10200
C559        C  0.64731762  0.63735526  0.67554746    -0.11100
C560        C  0.65168487  0.64066610  0.63859335     0.20400
C561        C  0.67653335  0.66567983  0.62496385    -0.13100
C562        C  0.69683168  0.68727878  0.64812607    -0.11400
C563        C  0.63035904  0.61875512  0.61473921     0.01400
C564        C  0.61167123  0.60066333  0.59531565    -0.31400
C565        C  0.71319873  0.70650771  0.70881688     0.02800
C566        C  0.73119220  0.72559078  0.72797144    -0.33100
H567        H  0.66394966  0.65618048  0.72720486     0.13800
H568        H  0.62815942  0.61816575  0.68643087     0.13700
H569        H  0.68013177  0.66855464  0.59647498     0.13500
H570        H  0.71590818  0.70655335  0.63724226     0.12500
C571        C  0.31622242  0.31500534  0.68438688     0.18900
C572        C  0.30291374  0.34893535  0.67417061    -0.10200
C573        C  0.32353040  0.37146401  0.65216370    -0.11100
C574        C  0.35754116  0.36015247  0.64026417     0.20400
C575        C  0.37082987  0.32622397  0.65049236    -0.13100
C576        C  0.35022716  0.30371144  0.67248630    -0.11400
C577        C  0.37905016  0.38336638  0.61790664     0.01400
C578        C  0.39824352  0.40214836  0.59969216    -0.31400
C579        C  0.29497749  0.29173424  0.70691507     0.02800
C580        C  0.27710272  0.27209181  0.72559023    -0.33100
H581        H  0.27665599  0.35794592  0.68320571     0.13800
H582        H  0.31300104  0.39765993  0.64448589     0.13700
H583        H  0.39711028  0.31721470  0.64151241     0.13500
H584        H  0.36079379  0.27753826  0.68020315     0.12500
C585        C  0.65436877  0.35790596  0.36178072     0.18900
C586        C  0.66179711  0.32204301  0.37135881    -0.10200
C587        C  0.68188063  0.29988492  0.34857175    -0.11100
C588        C  0.69461225  0.31347416  0.31607246     0.20400
C589        C  0.68729970  0.34937465  0.30654400    -0.13100
C590        C  0.66720831  0.37153795  0.32933534    -0.11400
C591        C  0.71520040  0.29064010  0.29256906     0.01400
C592        C  0.73271549  0.27145138  0.27314187    -0.31400
C593        C  0.63256312  0.38022969  0.38469144     0.02800
C594        C  0.61284246  0.39799378  0.40331285    -0.33100
H595        H  0.65186907  0.31116443  0.39629587     0.13800
H596        H  0.68737457  0.27217065  0.35622371     0.13700
H597        H  0.69701401  0.36016497  0.28149044     0.13500
H598        H  0.66149282  0.39917162  0.32157012     0.12500
C599        C  0.31530955  0.68218282  0.31413708     0.18900
C600        C  0.32607333  0.64791005  0.30224634    -0.10200
C601        C  0.34638460  0.62536186  0.32447067    -0.11100
C602        C  0.35601425  0.63694749  0.35872083     0.20400
C603        C  0.34498962  0.67110509  0.37070586    -0.13100
C604        C  0.32468000  0.69365068  0.34848276    -0.11400
C605        C  0.37814789  0.61431566  0.38108090     0.01400
C606        C  0.39787308  0.59585914  0.39906576    -0.31400
C607        C  0.29463399  0.70551959  0.29117134     0.02800
C608        C  0.27682528  0.72485067  0.27214062    -0.33100
H609        H  0.31892320  0.63871265  0.27577892     0.13800
H610        H  0.35481529  0.59905384  0.31486155     0.13700
H611        H  0.35233156  0.68040622  0.39708260     0.13500
H612        H  0.31644492  0.72005361  0.35799998     0.12500
C613        C  0.69352817  0.68167157  0.31237047     0.18900
C614        C  0.65984912  0.66885751  0.30109558    -0.10200
C615        C  0.63971625  0.64588503  0.32305584    -0.11100
C616        C  0.65313538  0.63555608  0.35642646     0.20400
C617        C  0.68689990  0.64823609  0.36767548    -0.13100
C618        C  0.70705551  0.67123095  0.34569023    -0.11400
C619        C  0.63184237  0.61254114  0.37921537     0.01400
C620        C  0.61255160  0.59396576  0.39755461    -0.31400
C621        C  0.71413628  0.70549032  0.28976919     0.02800
C622        C  0.73182728  0.72522731  0.27098788    -0.33100
H623        H  0.64912106  0.67670381  0.27540015     0.13800
H624        H  0.61362481  0.63631344  0.31409107     0.13700
H625        H  0.69753745  0.64049834  0.39343701     0.13500
H626        H  0.73308083  0.68093921  0.35469004     0.12500
C627        C  0.69190991  0.31303243  0.68460113     0.18900
C628        C  0.67016172  0.29780993  0.65801635    -0.10200
C629        C  0.64978161  0.32014413  0.63567128    -0.11100
C630        C  0.65108814  0.35780194  0.63979301     0.20400
C631        C  0.67275894  0.37300280  0.66644920    -0.13100
C632        C  0.69313518  0.35067266  0.68878869    -0.11400
C633        C  0.62977412  0.38077904  0.61708535     0.01400
C634        C  0.61101509  0.39980839  0.59872943    -0.31400
C635        C  0.71325937  0.29011994  0.70730317     0.02800
C636        C  0.73163551  0.27108600  0.72605229    -0.33100
H637        H  0.66901513  0.26873640  0.65453705     0.13800
H638        H  0.63302044  0.30808330  0.61524114     0.13700
H639        H  0.67387675  0.40207085  0.66996850     0.13500
H640        H  0.70986194  0.36272902  0.70924940     0.12500
C641        C  0.35936356  0.64095909  0.63841987     0.18900
C642        C  0.35025256  0.67632819  0.62847804    -0.10200
C643        C  0.32962946  0.69797561  0.65128984    -0.11100
C644        C  0.31801019  0.68440587  0.68420395     0.20400
C645        C  0.32707964  0.64901872  0.69415463    -0.13100
C646        C  0.34771615  0.62735728  0.67132901    -0.11400
C647        C  0.29658797  0.70672330  0.70753392     0.01400
C648        C  0.27822689  0.72573810  0.72640026    -0.31400
C649        C  0.38118366  0.61894737  0.61514773     0.02800
C650        C  0.40033849  0.60103417  0.59604152    -0.33100
H651        H  0.35916662  0.68718774  0.60316228     0.13800
H652        H  0.32275975  0.72527131  0.64327912     0.13700
H653        H  0.31822697  0.63820821  0.71950850     0.13500
H654        H  0.35466035  0.60009197  0.67936451     0.12500
C655        C  0.35703893  0.35551875  0.36112094     0.18900
C656        C  0.35131039  0.36562473  0.32559624    -0.10200
C657        C  0.33104471  0.34342359  0.30298703    -0.11100
C658        C  0.31639571  0.31096537  0.31574513     0.20400
C659        C  0.32214621  0.30080778  0.35125494    -0.13100
C660        C  0.34242548  0.32301998  0.37387741    -0.11400
C661        C  0.29510678  0.28844555  0.29250063     0.01400
C662        C  0.27677108  0.27026410  0.27284403    -0.31400
C663        C  0.37852315  0.37808986  0.38419753     0.02800
C664        C  0.39759307  0.39646227  0.40297582    -0.33100
H665        H  0.36256485  0.39060471  0.31536841     0.13800
H666        H  0.32675923  0.35157823  0.27560543     0.13700
H667        H  0.31093370  0.27579050  0.36144184     0.13500
H668        H  0.34676829  0.31483810  0.40123975     0.12500
loop_ 
_geom_bond_atom_site_label_1 
_geom_bond_atom_site_label_2 
_geom_bond_distance 
_geom_bond_site_symmetry_2 
_ccdc_geom_bond_type 
C1           N19   1.349       .  A
C1           C38   1.457       .  S
C1          C664   1.439       .  S
N2           N19   1.325       .  A
N2           N24   1.321       .  A
N2          Co39   2.088       .  S
C3           N28   1.341       .  A
C3           C41   1.456       .  S
C3           H48   1.082       .  S
H4           C45   1.082       .  S
C5           N29   1.342       .  A
C5            C9   1.457       .  S
C5           H34   1.082       .  S
Co6          N24   2.087       .  S
Co6          N14   2.087       .  S
Co6          N46   2.086       .  S
Co6          N22   2.086       .  S
Co6         Cl50   2.454       .  S
N7           C45   1.341       .  A
N7           N14   1.321       .  A
N7           Co8   2.085       .  S
Co8          N11   2.085       .  S
Co8          N28   2.084       .  S
Co8          N15   2.087       .  S
Co8         Cl50   2.450       .  S
C9           N47   1.348       .  A
C9          C650   1.438       .  S
N10          N17   1.321       .  A
N10          N40   1.326       .  A
N10         Co43   2.091       .  S
N11          N29   1.321       .  A
N11          N47   1.325       .  A
N12          C41   1.348       .  A
N12          N22   1.325       .  A
H13          C38   1.082       .  S
N14          N35   1.325       .  A
N15          N33   1.321       .  A
N15          N20   1.325       .  A
C16          N20   1.348       .  A
C16          C44   1.458       .  S
C16         C564   1.439       .  S
N17          C32   1.341       .  A
N17         Co39   2.084       .  S
C18          N46   1.342       .  A
C18          C21   1.456       .  S
C18          H52   1.082       .  S
C21          N42   1.347       .  A
C21         C594   1.436       .  S
N22          N28   1.321       .  A
N23          C49   1.341       .  A
N23          N25   1.321       .  A
N23         Co39   2.083       .  S
N24          C38   1.342       .  A
N25          N53   1.325       .  A
N25         Co43   2.088       .  S
H26          C49   1.082       .  S
H27          C44   1.082       .  S
N29         Co43   2.088       .  S
N30          N42   1.325       .  A
N30          N46   1.321       .  A
N30         Co39   2.084       .  S
C31          N35   1.348       .  A
C31          C45   1.455       .  S
C31         C578   1.437       .  S
C32          C51   1.455       .  S
C32          H36   1.082       .  S
N33          C44   1.342       .  A
N33         Co43   2.089       .  S
C37          N53   1.349       .  A
C37          C49   1.455       .  S
C37         C620   1.437       .  S
Co39        Cl50   2.451       .  S
N40          C51   1.349       .  A
C41         C634   1.436       .  S
Co43        Cl50   2.454       .  S
C51         C606   1.438       .  S
C54          N72   1.349       .  A
C54          C91   1.455       .  S
C54         C522   1.438       .  S
N55          N72   1.326       .  A
N55          N77   1.321       .  A
N55         Co92   2.089       .  S
C56          N81   1.342       .  A
C56          C94   1.457       .  S
C56         H101   1.082       .  S
H57          C98   1.082       .  S
C58          N82   1.341       .  A
C58          C62   1.456       .  S
C58          H87   1.082       .  S
Co59         N77   2.084       .  S
Co59         N67   2.089   1_455  S
Co59         N99   2.087   1_556  S
Co59         N75   2.087   1_456  S
Co59       Cl103   2.453       .  S
N60          C98   1.340       .  A
N60          N67   1.321       .  A
N60         Co61   2.083       .  S
Co61         N64   2.087       .  S
Co61         N81   2.088   1_556  S
Co61         N68   2.085   1_556  S
Co61       Cl103   2.452   1_655  S
C62         N100   1.348       .  A
C62         C508   1.437       .  S
N63          N70   1.321       .  A
N63          N93   1.326       .  A
N63         Co96   2.089       .  S
N64          N82   1.321       .  A
N64         N100   1.325       .  A
N65          C94   1.348       .  A
N65          N75   1.326       .  A
H66          C91   1.082       .  S
N67          N88   1.326       .  A
N68          N86   1.321       .  A
N68          N73   1.325       .  A
C69          N73   1.348       .  A
C69          C97   1.456       .  S
C69         C480   1.437       .  S
N70          C85   1.342       .  A
N70         Co92   2.089       .  S
C71          N99   1.342       .  A
C71          C74   1.457       .  S
C71         H105   1.082       .  S
C74          N95   1.347       .  A
C74         C454   1.437       .  S
N75          N81   1.321       .  A
N76         C102   1.341       .  A
N76          N78   1.321       .  A
N76         Co92   2.084   1_554  S
N77          C91   1.341       .  A
N78         N106   1.326       .  A
N78         Co96   2.091   1_554  S
H79         C102   1.082       .  S
H80          C97   1.082       .  S
N82         Co96   2.086   1_655  S
N83          N95   1.325       .  A
N83          N99   1.321       .  A
N83         Co92   2.085   1_554  S
C84          N88   1.349       .  A
C84          C98   1.455       .  S
C84         C550   1.437       .  S
C85         C104   1.457       .  S
C85          H89   1.082       .  S
N86          C97   1.341       .  A
N86         Co96   2.086   1_654  S
C90         N106   1.350       .  A
C90         C102   1.455       .  S
C90         C468   1.439       .  S
Co92       Cl103   2.452       .  S
N93         C104   1.349       .  A
C94         C538   1.440       .  S
Co96       Cl103   2.454       .  S
C104        C494   1.441       .  S
C107        C426   1.467       .  S
C107        C440   1.468       .  S
C107        C552   1.467       .  S
C107        C636   1.466       .  S
C108        N126   1.348       .  A
C108        C145   1.455       .  S
C108        C382   1.435       .  S
N109        N126   1.325       .  A
N109        N131   1.320       .  A
N109       Co146   2.086       .  S
C110        N135   1.342       .  A
C110        C148   1.457       .  S
C110        H155   1.082       .  S
H111        C152   1.082       .  S
C112        N136   1.342       .  A
C112        C116   1.458       .  S
C112        H141   1.082       .  S
Co113       N131   2.081       .  S
Co113       N121   2.086       .  S
Co113       N153   2.085   1_556  S
Co113       N129   2.084   1_556  S
Co113      Cl157   2.455   1_545  S
N114        C152   1.341       .  A
N114        N121   1.321       .  A
N114       Co115   2.085   1_545  S
Co115       N118   2.087       .  S
Co115       N135   2.089   1_566  S
Co115       N122   2.086   1_556  S
Co115      Cl157   2.450       .  S
C116        N154   1.348       .  A
C116        C368   1.440       .  S
N117        N124   1.321       .  A
N117        N147   1.326       .  A
N117       Co150   2.094       .  S
N118        N136   1.321       .  A
N118        N154   1.325       .  A
N119        C148   1.348       .  A
N119        N129   1.325       .  A
H120        C145   1.082       .  S
N121        N142   1.326       .  A
N122        N140   1.322       .  A
N122        N127   1.325       .  A
C123        N127   1.348       .  A
C123        C151   1.459       .  S
C123        C398   1.441       .  S
N124        C139   1.341       .  A
N124       Co146   2.082   1_565  S
C125        N153   1.341       .  A
C125        C128   1.456       .  S
C125        H159   1.082       .  S
C128        N149   1.347       .  A
C128        C342   1.436       .  S
N129        N135   1.321       .  A
N130        C156   1.341       .  A
N130        N132   1.321       .  A
N130       Co146   2.085   1_564  S
N131        C145   1.341       .  A
N132        N160   1.326       .  A
N132       Co150   2.094   1_554  S
H133        C156   1.082       .  S
H134        C151   1.082       .  S
N136       Co150   2.090       .  S
N137        N149   1.325       .  A
N137        N153   1.321       .  A
N137       Co146   2.084   1_554  S
C138        N142   1.348       .  A
C138        C152   1.455       .  S
C138        C438   1.438       .  S
C139        C158   1.454       .  S
C139        H143   1.082       .  S
N140        C151   1.343       .  A
N140       Co150   2.093   1_554  S
C144        N160   1.350       .  A
C144        C156   1.455       .  S
C144        C354   1.440       .  S
Co146      Cl157   2.451   1_545  S
N147        C158   1.350       .  A
C148        C326   1.438       .  S
Co150      Cl157   2.456       .  S
C158        C412   1.439       .  S
C161        C312   1.468       .  S
C161        C410   1.469       .  S
C161        C496   1.470       .  S
C161        C648   1.469       .  S
C162        N180   1.348       .  A
C162        C199   1.455       .  S
C162        C298   1.436       .  S
N163        N180   1.325       .  A
N163        N185   1.320       .  A
N163       Co200   2.085   1_645  S
C164        N189   1.342       .  A
C164        C202   1.456       .  S
C164        H209   1.082       .  S
H165        C206   1.082       .  S
C166        N190   1.341       .  A
C166        C170   1.456       .  S
C166        H195   1.082       .  S
Co167       N185   2.083   1_565  S
Co167       N175   2.085   1_565  S
Co167       N207   2.083       .  S
Co167       N183   2.083       .  S
Co167      Cl211   2.452   1_655  S
N168        C206   1.341       .  A
N168        N175   1.321       .  A
N168       Co169   2.087   1_645  S
Co169       N172   2.086   1_565  S
Co169       N189   2.086   1_455  S
Co169       N176   2.089       .  S
Co169      Cl211   2.452       .  S
C170        N208   1.348       .  A
C170        C228   1.437       .  S
N171        N178   1.321       .  A
N171        N201   1.326       .  A
N171       Co204   2.092   1_545  S
N172        N190   1.321       .  A
N172        N208   1.325       .  A
N173        C202   1.347       .  A
N173        N183   1.325       .  A
H174        C199   1.082       .  S
N175        N196   1.325       .  A
N176        N194   1.321       .  A
N176        N181   1.326       .  A
C177        N181   1.349       .  A
C177        C205   1.456       .  S
C177        C314   1.438       .  S
N178        C193   1.341       .  A
N178       Co200   2.085   1_545  S
C179        N207   1.341       .  A
C179        C182   1.455       .  S
C179        H213   1.082       .  S
C182        N203   1.349       .  A
C182        C284   1.437       .  S
N183        N189   1.321       .  A
N184        C210   1.341       .  A
N184        N186   1.320       .  A
N184       Co200   2.083       .  S
N185        C199   1.341       .  A
N186        N214   1.325       .  A
N186       Co204   2.084       .  S
H187        C210   1.082       .  S
H188        C205   1.082       .  S
N190       Co204   2.085   1_545  S
N191        N203   1.325       .  A
N191        N207   1.320       .  A
N191       Co200   2.088   1_655  S
C192        N196   1.348       .  A
C192        C206   1.456       .  S
C192        C424   1.437       .  S
C193        C212   1.455       .  S
C193        H197   1.082       .  S
N194        C205   1.341       .  A
N194       Co204   2.087       .  S
C198        N214   1.348       .  A
C198        C210   1.456       .  S
C198        C270   1.436       .  S
Co200      Cl211   2.451       .  S
N201        C212   1.349       .  A
C202        C258   1.436       .  S
Co204      Cl211   2.453       .  S
C212        C242   1.439       .  S
C215        C286   1.468       .  S
C215        C396   1.471       .  S
C215        C482   1.468       .  S
C215        C622   1.469       .  S
C216        C244   1.468       .  S
C216        C340   1.468       .  S
C216        C452   1.469       .  S
C216        C662   1.468       .  S
C217        C300   1.467       .  S
C217        C328   1.470       .  S
C217        C536   1.470       .  S
C217        C592   1.467       .  S
C218        C272   1.468       .  S
C218        C356   1.471       .  S
C218        C466   1.470       .  S
C218        C608   1.468       .  S
C219        C230   1.467       .  S
C219        C384   1.466       .  S
C219        C524   1.467       .  S
C219        C580   1.467       .  S
C220        C256   1.467       .  S
C220        C370   1.470       .  S
C220        C510   1.469       .  S
C220        C566   1.469       .  S
C221        C229   1.440       .  S
C221        C222   1.401       .  A
C221        C226   1.401       .  A
C222        H231   1.083       .  S
C222        C223   1.400       .  A
C223        H232   1.083       .  S
C223        C224   1.402       .  A
C224        C227   1.441       .  S
C224        C225   1.401       .  A
C225        H233   1.083       .  S
C225        C226   1.399       .  A
C226        H234   1.084       .  S
C227        C228   1.206       .  T
C229        C230   1.207       .  T
C235        C243   1.441       .  S
C235        C236   1.402       .  A
C235        C240   1.401       .  A
C236        H245   1.083       .  S
C236        C237   1.401       .  A
C237        H246   1.084       .  S
C237        C238   1.402       .  A
C238        C241   1.443       .  S
C238        C239   1.401       .  A
C239        H247   1.083       .  S
C239        C240   1.399       .  A
C240        H248   1.084       .  S
C241        C242   1.208       .  T
C243        C244   1.207       .  T
C249        C257   1.440       .  S
C249        C250   1.401       .  A
C249        C254   1.402       .  A
C250        H259   1.084       .  S
C250        C251   1.398       .  A
C251        H260   1.083       .  S
C251        C252   1.401       .  A
C252        C255   1.440       .  S
C252        C253   1.402       .  A
C253        H261   1.083       .  S
C253        C254   1.400       .  A
C254        H262   1.083       .  S
C255        C256   1.207       .  T
C257        C258   1.206       .  T
C263        C271   1.441       .  S
C263        C264   1.402       .  A
C263        C268   1.401       .  A
C264        H273   1.084       .  S
C264        C265   1.400       .  A
C265        H274   1.083       .  S
C265        C266   1.402       .  A
C266        C269   1.440       .  S
C266        C267   1.401       .  A
C267        H275   1.083       .  S
C267        C268   1.399       .  A
C268        H276   1.083       .  S
C269        C270   1.206       .  T
C271        C272   1.207       .  T
C277        C285   1.441       .  S
C277        C278   1.401       .  A
C277        C282   1.402       .  A
C278        H287   1.083       .  S
C278        C279   1.399       .  A
C279        H288   1.084       .  S
C279        C280   1.401       .  A
C280        C283   1.441       .  S
C280        C281   1.402       .  A
C281        H289   1.083       .  S
C281        C282   1.400       .  A
C282        H290   1.084       .  S
C283        C284   1.207       .  T
C285        C286   1.208       .  T
C291        C299   1.440       .  S
C291        C292   1.401       .  A
C291        C296   1.401       .  A
C292        H301   1.084       .  S
C292        C293   1.399       .  A
C293        H302   1.083       .  S
C293        C294   1.401       .  A
C294        C297   1.440       .  S
C294        C295   1.401       .  A
C295        H303   1.084       .  S
C295        C296   1.399       .  A
C296        H304   1.083       .  S
C297        C298   1.206       .  T
C299        C300   1.207       .  T
C305        C313   1.442       .  S
C305        C306   1.402       .  A
C305        C310   1.402       .  A
C306        H315   1.083       .  S
C306        C307   1.400       .  A
C307        H316   1.084       .  S
C307        C308   1.402       .  A
C308        C311   1.442       .  S
C308        C309   1.401       .  A
C309        H317   1.083       .  S
C309        C310   1.400       .  A
C310        H318   1.084       .  S
C311        C312   1.208       .  T
C313        C314   1.207       .  T
C319        C327   1.443       .  S
C319        C320   1.401       .  A
C319        C324   1.403       .  A
C320        H329   1.084       .  S
C320        C321   1.399       .  A
C321        H330   1.083       .  S
C321        C322   1.402       .  A
C322        C325   1.442       .  S
C322        C323   1.402       .  A
C323        H331   1.084       .  S
C323        C324   1.401       .  A
C324        H332   1.083       .  S
C325        C326   1.207       .  T
C327        C328   1.209       .  T
C333        C341   1.440       .  S
C333        C334   1.402       .  A
C333        C338   1.401       .  A
C334        H343   1.083       .  S
C334        C335   1.400       .  A
C335        H344   1.083       .  S
C335        C336   1.402       .  A
C336        C339   1.441       .  S
C336        C337   1.401       .  A
C337        H345   1.083       .  S
C337        C338   1.399       .  A
C338        H346   1.084       .  S
C339        C340   1.208       .  T
C341        C342   1.206       .  T
C347        C355   1.444       .  S
C347        C348   1.402       .  A
C347        C352   1.402       .  A
C348        H357   1.083       .  S
C348        C349   1.401       .  A
C349        H358   1.083       .  S
C349        C350   1.402       .  A
C350        C353   1.444       .  S
C350        C351   1.402       .  A
C351        H359   1.083       .  S
C351        C352   1.401       .  A
C352        H360   1.083       .  S
C353        C354   1.209       .  T
C355        C356   1.209       .  T
C361        C369   1.444       .  S
C361        C362   1.402       .  A
C361        C366   1.402       .  A
C362        H371   1.083       .  S
C362        C363   1.400       .  A
C363        H372   1.083       .  S
C363        C364   1.402       .  A
C364        C367   1.444       .  S
C364        C365   1.403       .  A
C365        H373   1.083       .  S
C365        C366   1.401       .  A
C366        H374   1.083       .  S
C367        C368   1.208       .  T
C369        C370   1.209       .  T
C375        C383   1.439       .  S
C375        C376   1.401       .  A
C375        C380   1.401       .  A
C376        H385   1.083       .  S
C376        C377   1.399       .  A
C377        H386   1.083       .  S
C377        C378   1.401       .  A
C378        C381   1.439       .  S
C378        C379   1.401       .  A
C379        H387   1.083       .  S
C379        C380   1.399       .  A
C380        H388   1.083       .  S
C381        C382   1.205       .  T
C383        C384   1.206       .  T
C389        C397   1.445       .  S
C389        C390   1.402       .  A
C389        C394   1.403       .  A
C390        H399   1.083       .  S
C390        C391   1.400       .  A
C391        H400   1.083       .  S
C391        C392   1.401       .  A
C392        C395   1.444       .  S
C392        C393   1.403       .  A
C393        H401   1.083       .  S
C393        C394   1.402       .  A
C394        H402   1.083       .  S
C395        C396   1.209       .  T
C397        C398   1.209       .  T
C403        C411   1.443       .  S
C403        C404   1.402       .  A
C403        C408   1.401       .  A
C404        H413   1.084       .  S
C404        C405   1.401       .  A
C405        H414   1.083       .  S
C405        C406   1.402       .  A
C406        C409   1.442       .  S
C406        C407   1.401       .  A
C407        H415   1.083       .  S
C407        C408   1.400       .  A
C408        H416   1.083       .  S
C409        C410   1.208       .  T
C411        C412   1.208       .  T
C417        C425   1.441       .  S
C417        C418   1.402       .  A
C417        C422   1.401       .  A
C418        H427   1.083       .  S
C418        C419   1.400       .  A
C419        H428   1.083       .  S
C419        C420   1.402       .  A
C420        C423   1.441       .  S
C420        C421   1.401       .  A
C421        H429   1.083       .  S
C421        C422   1.399       .  A
C422        H430   1.084       .  S
C423        C424   1.206       .  T
C425        C426   1.207       .  T
C431        C439   1.441       .  S
C431        C432   1.402       .  A
C431        C436   1.401       .  A
C432        H441   1.083       .  S
C432        C433   1.400       .  A
C433        H442   1.083       .  S
C433        C434   1.402       .  A
C434        C437   1.442       .  S
C434        C435   1.402       .  A
C435        H443   1.084       .  S
C435        C436   1.399       .  A
C436        H444   1.083       .  S
C437        C438   1.207       .  T
C439        C440   1.208       .  T
C445        C453   1.442       .  S
C445        C446   1.402       .  A
C445        C450   1.401       .  A
C446        H455   1.083       .  S
C446        C447   1.401       .  A
C447        H456   1.083       .  S
C447        C448   1.402       .  A
C448        C451   1.442       .  S
C448        C449   1.401       .  A
C449        H457   1.083       .  S
C449        C450   1.399       .  A
C450        H458   1.084       .  S
C451        C452   1.208       .  T
C453        C454   1.207       .  T
C459        C467   1.443       .  S
C459        C460   1.401       .  A
C459        C464   1.403       .  A
C460        H469   1.083       .  S
C460        C461   1.400       .  A
C461        H470   1.083       .  S
C461        C462   1.401       .  A
C462        C465   1.443       .  S
C462        C463   1.402       .  A
C463        H471   1.083       .  S
C463        C464   1.401       .  A
C464        H472   1.083       .  S
C465        C466   1.209       .  T
C467        C468   1.208       .  T
C473        C481   1.441       .  S
C473        C474   1.402       .  A
C473        C478   1.401       .  A
C474        H483   1.083       .  S
C474        C475   1.400       .  A
C475        H484   1.083       .  S
C475        C476   1.401       .  A
C476        C479   1.441       .  S
C476        C477   1.402       .  A
C477        H485   1.083       .  S
C477        C478   1.399       .  A
C478        H486   1.083       .  S
C479        C480   1.207       .  T
C481        C482   1.207       .  T
C487        C495   1.444       .  S
C487        C488   1.402       .  A
C487        C492   1.402       .  A
C488        H497   1.083       .  S
C488        C489   1.401       .  A
C489        H498   1.083       .  S
C489        C490   1.403       .  A
C490        C493   1.444       .  S
C490        C491   1.402       .  A
C491        H499   1.083       .  S
C491        C492   1.400       .  A
C492        H500   1.083       .  S
C493        C494   1.209       .  T
C495        C496   1.209       .  T
C501        C509   1.442       .  S
C501        C502   1.402       .  A
C501        C506   1.401       .  A
C502        H511   1.083       .  S
C502        C503   1.400       .  A
C503        H512   1.083       .  S
C503        C504   1.402       .  A
C504        C507   1.442       .  S
C504        C505   1.402       .  A
C505        H513   1.084       .  S
C505        C506   1.400       .  A
C506        H514   1.083       .  S
C507        C508   1.207       .  T
C509        C510   1.208       .  T
C515        C523   1.441       .  S
C515        C516   1.401       .  A
C515        C520   1.402       .  A
C516        H525   1.083       .  S
C516        C517   1.399       .  A
C517        H526   1.083       .  S
C517        C518   1.401       .  A
C518        C521   1.442       .  S
C518        C519   1.402       .  A
C519        H527   1.083       .  S
C519        C520   1.400       .  A
C520        H528   1.083       .  S
C521        C522   1.207       .  T
C523        C524   1.207       .  T
C529        C537   1.444       .  S
C529        C530   1.402       .  A
C529        C534   1.402       .  A
C530        H539   1.083       .  S
C530        C531   1.401       .  A
C531        H540   1.083       .  S
C531        C532   1.402       .  A
C532        C535   1.443       .  S
C532        C533   1.401       .  A
C533        H541   1.083       .  S
C533        C534   1.400       .  A
C534        H542   1.083       .  S
C535        C536   1.209       .  T
C537        C538   1.208       .  T
C543        C551   1.441       .  S
C543        C544   1.402       .  A
C543        C548   1.401       .  A
C544        H553   1.083       .  S
C544        C545   1.400       .  A
C545        H554   1.083       .  S
C545        C546   1.401       .  A
C546        C549   1.441       .  S
C546        C547   1.402       .  A
C547        H555   1.084       .  S
C547        C548   1.399       .  A
C548        H556   1.083       .  S
C549        C550   1.207       .  T
C551        C552   1.207       .  T
C557        C565   1.442       .  S
C557        C558   1.402       .  A
C557        C562   1.402       .  A
C558        H567   1.083       .  S
C558        C559   1.401       .  A
C559        H568   1.084       .  S
C559        C560   1.402       .  A
C560        C563   1.443       .  S
C560        C561   1.402       .  A
C561        H569   1.083       .  S
C561        C562   1.400       .  A
C562        H570   1.084       .  S
C563        C564   1.208       .  T
C565        C566   1.208       .  T
C571        C579   1.440       .  S
C571        C572   1.402       .  A
C571        C576   1.401       .  A
C572        H581   1.083       .  S
C572        C573   1.400       .  A
C573        H582   1.084       .  S
C573        C574   1.401       .  A
C574        C577   1.441       .  S
C574        C575   1.402       .  A
C575        H583   1.083       .  S
C575        C576   1.399       .  A
C576        H584   1.084       .  S
C577        C578   1.206       .  T
C579        C580   1.207       .  T
C585        C593   1.440       .  S
C585        C586   1.401       .  A
C585        C590   1.402       .  A
C586        H595   1.083       .  S
C586        C587   1.399       .  A
C587        H596   1.084       .  S
C587        C588   1.401       .  A
C588        C591   1.440       .  S
C588        C589   1.401       .  A
C589        H597   1.083       .  S
C589        C590   1.399       .  A
C590        H598   1.084       .  S
C591        C592   1.207       .  T
C593        C594   1.206       .  T
C599        C607   1.441       .  S
C599        C600   1.402       .  A
C599        C604   1.401       .  A
C600        H609   1.083       .  S
C600        C601   1.400       .  A
C601        H610   1.084       .  S
C601        C602   1.402       .  A
C602        C605   1.442       .  S
C602        C603   1.402       .  A
C603        H611   1.083       .  S
C603        C604   1.400       .  A
C604        H612   1.083       .  S
C605        C606   1.207       .  T
C607        C608   1.208       .  T
C613        C621   1.442       .  S
C613        C614   1.401       .  A
C613        C618   1.402       .  A
C614        H623   1.083       .  S
C614        C615   1.399       .  A
C615        H624   1.084       .  S
C615        C616   1.402       .  A
C616        C619   1.442       .  S
C616        C617   1.402       .  A
C617        H625   1.083       .  S
C617        C618   1.401       .  A
C618        H626   1.083       .  S
C619        C620   1.207       .  T
C621        C622   1.208       .  T
C627        C635   1.439       .  S
C627        C628   1.401       .  A
C627        C632   1.401       .  A
C628        H637   1.084       .  S
C628        C629   1.399       .  A
C629        H638   1.083       .  S
C629        C630   1.402       .  A
C630        C633   1.440       .  S
C630        C631   1.401       .  A
C631        H639   1.084       .  S
C631        C632   1.399       .  A
C632        H640   1.083       .  S
C633        C634   1.206       .  T
C635        C636   1.207       .  T
C641        C649   1.442       .  S
C641        C642   1.401       .  A
C641        C646   1.402       .  A
C642        H651   1.083       .  S
C642        C643   1.400       .  A
C643        H652   1.084       .  S
C643        C644   1.402       .  A
C644        C647   1.442       .  S
C644        C645   1.402       .  A
C645        H653   1.083       .  S
C645        C646   1.400       .  A
C646        H654   1.083       .  S
C647        C648   1.208       .  T
C649        C650   1.207       .  T
C655        C663   1.443       .  S
C655        C656   1.402       .  A
C655        C660   1.402       .  A
C656        H665   1.084       .  S
C656        C657   1.400       .  A
C657        H666   1.083       .  S
C657        C658   1.401       .  A
C658        C661   1.441       .  S
C658        C659   1.402       .  A
C659        H667   1.084       .  S
C659        C660   1.400       .  A
C660        H668   1.083       .  S
C661        C662   1.208       .  T
C663        C664   1.208       .  T
