geometry optimzed in LAMMPS
_audit_creation_date              2020-11-30 
_audit_creation_method            'lammps2cif' 
_symmetry_space_group_name_H-M    'P1' 
_symmetry_Int_Tables_number       1 
_symmetry_cell_setting            triclinic 
loop_ 
_symmetry_equiv_pos_as_xyz 
  x,y,z 
_cell_length_a                    39.48261843 
_cell_length_b                    39.51939417370656 
_cell_length_c                    62.29019129401551 
_cell_angle_alpha                 90.02925190377155 
_cell_angle_beta                  89.9865984119544 
_cell_angle_gamma                 89.90778567228192 
loop_ 
_atom_site_label 
_atom_site_type_symbol 
_atom_site_fract_x 
_atom_site_fract_y 
_atom_site_fract_z 
_atom_site_charge 
In1        In  0.19639615  0.69864681  0.82680796     1.36900
C2          C  0.19443599  0.63312801  0.83566543     0.77700
O3          O  0.25134077  0.69234882  0.83299017    -0.60700
O4          O  0.22574951  0.72876931  0.85189538    -0.51700
C5          C  0.20545148  0.72754982  0.78873360     0.70400
O6          O  0.20517681  0.69592982  0.79144414    -0.46500
C7          C  0.13059959  0.71150814  0.83217065     0.75100
O8          O  0.20547917  0.64463376  0.81812705    -0.58400
O9          O  0.15279815  0.72220619  0.84516612    -0.48500
O10         O  0.18432196  0.65522159  0.84883007    -0.54800
C11         C  0.25331748  0.71356796  0.84794982     0.85200
O12         O  0.20193825  0.74451277  0.80576653    -0.56700
O13         O  0.14259290  0.69523714  0.81649906    -0.60000
In14       In  0.30473391  0.81531418  0.60697387     1.36900
C15         C  0.37113659  0.80884985  0.60299185     0.77700
O16         O  0.30569926  0.75934840  0.60462650    -0.60700
O17         O  0.27984068  0.78596782  0.58007767    -0.51700
C18         C  0.27184201  0.81141970  0.64418919     0.70400
O19         O  0.30305739  0.81709977  0.64260581    -0.46500
C20         C  0.29506021  0.87959347  0.59557785     0.75100
O21         O  0.35574408  0.80376042  0.62041301    -0.58400
O22         O  0.27920673  0.85556289  0.58677507    -0.48500
O23         O  0.35235605  0.81736907  0.58749620    -0.54800
C24         C  0.28890756  0.75758849  0.58752400     0.85200
O25         O  0.25680871  0.80857677  0.62641232    -0.56700
O26         O  0.31539641  0.87046978  0.61001156    -0.60000
C27         C  0.53899697  0.74802597  0.92672451     0.86600
C28         C  0.53263160  0.77904080  0.94187699    -0.53600
C29         C  0.50350637  0.77705099  0.95390111     0.09500
C30         C  0.48169719  0.74664098  0.94672271     0.20500
C31         C  0.53451679  0.71699067  0.94179287    -0.54400
C32         C  0.50520656  0.71716039  0.95368837     0.09600
C33         C  0.50848369  0.74710797  0.91181389    -0.53900
C34         C  0.47832217  0.74675027  0.92216792     0.10200
H35         H  0.55361585  0.79358623  0.94825185     0.14700
H36         H  0.45651636  0.74622215  0.95466254     0.00500
H37         H  0.55639370  0.70234246  0.94690471     0.15000
H38         H  0.51078818  0.74558829  0.89447931     0.14800
C39         C  0.26663933  0.47321543  0.50653368     0.86600
C40         C  0.23501116  0.48099480  0.49207352    -0.53600
C41         C  0.23732280  0.51046145  0.48042767     0.09500
C42         C  0.26877231  0.53109536  0.48717793     0.20500
C43         C  0.29744191  0.47769716  0.49125444    -0.54400
C44         C  0.29722069  0.50691924  0.47943004     0.09600
C45         C  0.26779154  0.50332198  0.52181072    -0.53900
C46         C  0.26918541  0.53358572  0.51169667     0.10200
H47         H  0.21747084  0.46191757  0.48663290     0.14700
H48         H  0.26986682  0.55657021  0.47965576     0.00500
H49         H  0.31181246  0.45576789  0.48591728     0.15000
H50         H  0.26760330  0.50095941  0.53918050     0.14800
In51       In  0.19266827  0.31258505  0.82860919     1.36900
C52         C  0.19040913  0.38005718  0.83383224     0.77700
O53         O  0.14286507  0.29065172  0.81768377    -0.60700
O54         O  0.14659546  0.30668717  0.84984426    -0.51700
C55         C  0.21255645  0.29006295  0.79020433     0.70400
O56         O  0.21208406  0.32105899  0.79518075    -0.46500
C57         C  0.24315058  0.28655409  0.85173705     0.75100
O58         O  0.18034647  0.36523494  0.81712022    -0.58400
O59         O  0.21253539  0.28128512  0.85650558    -0.48500
O60         O  0.20220193  0.36022495  0.84777122    -0.54800
C61         C  0.12791297  0.29477192  0.83530939     0.85200
O62         O  0.20207994  0.27062964  0.80489307    -0.56700
O63         O  0.24744468  0.30482803  0.83544774    -0.60000
In64       In  0.30663476  0.19162048  0.60410899     1.36900
C65         C  0.37421714  0.19009382  0.60599722     0.77700
O66         O  0.28697835  0.14036425  0.61264408    -0.60700
O67         O  0.29129545  0.15177209  0.57967900    -0.51700
C68         C  0.28571301  0.20683576  0.64380742     0.70400
O69         O  0.31450231  0.19473402  0.63967996    -0.46500
C70         C  0.29072310  0.24412474  0.57884567     0.75100
O71         O  0.35640001  0.21344271  0.61391059    -0.58400
O72         O  0.31913524  0.22968407  0.57844453    -0.48500
O73         O  0.35716944  0.16727101  0.59681788    -0.54800
C74         C  0.28429847  0.12985913  0.59369622     0.85200
O75         O  0.26729637  0.21087845  0.62743837    -0.56700
O76         O  0.26959705  0.22992161  0.59097496    -0.60000
C77         C  0.46464203  0.26002291  0.92826247     0.86600
C78         C  0.46628232  0.23077491  0.94499601    -0.53600
C79         C  0.49358191  0.23193071  0.95866750     0.09500
C80         C  0.51888260  0.25964208  0.95147863     0.20500
C81         C  0.46994067  0.29271268  0.94197719    -0.54400
C82         C  0.49699496  0.29155531  0.95565897     0.09600
C83         C  0.49697041  0.25696599  0.91513790    -0.53900
C84         C  0.52567362  0.25655961  0.92715678     0.10200
H85         H  0.44341132  0.21722400  0.94946344     0.14700
H86         H  0.54274856  0.25921739  0.96091078     0.00500
H87         H  0.44878233  0.30883929  0.94634792     0.15000
H88         H  0.49702294  0.25731055  0.89772111     0.14800
In89       In  0.81302550  0.70365772  0.82468414     1.36900
C90         C  0.80890557  0.63660465  0.82519387     0.77700
O91         O  0.85934343  0.73732247  0.82763110    -0.60700
O92         O  0.85965182  0.68988667  0.84314147    -0.51700
C93         C  0.80529900  0.72646579  0.78457834     0.70400
O94         O  0.80439546  0.69561243  0.78955891    -0.46500
C95         C  0.76100298  0.72675695  0.84769616     0.75100
O96         O  0.83018403  0.65229138  0.81382699    -0.58400
O97         O  0.79024470  0.72362660  0.85566762    -0.48500
O98         O  0.78889283  0.65529859  0.83561839    -0.54800
C99         C  0.87621019  0.71579348  0.83805946     0.85200
O100        O  0.81081914  0.74586370  0.80028896    -0.56700
O101        O  0.75910377  0.71878169  0.82821388    -0.60000
In102      In  0.69260688  0.80671188  0.60183433     1.36900
C103        C  0.62549982  0.80859658  0.59813272     0.77700
O104        O  0.71888645  0.84722595  0.58168682    -0.60700
O105        O  0.69335528  0.86140503  0.61015921    -0.51700
C106        C  0.72355923  0.79749017  0.63931190     0.70400
O107        O  0.69192983  0.79723122  0.63692599    -0.46500
C108        C  0.70664704  0.74820886  0.58214309     0.75100
O109        O  0.64078638  0.80743392  0.61582223    -0.58400
O110        O  0.69157519  0.75036146  0.59987427    -0.48500
O111        O  0.64475053  0.80956374  0.58198555    -0.54800
C112        C  0.71104764  0.87079390  0.59448337     0.85200
O113        O  0.73996201  0.80154612  0.62206830    -0.56700
O114        O  0.71490077  0.77647499  0.57421676    -0.60000
C115        C  0.72901530  0.52078004  0.50669844     0.86600
C116        C  0.75826412  0.51399680  0.49019849    -0.53600
C117        C  0.75505498  0.48409299  0.47884111     0.09500
C118        C  0.72537750  0.46270290  0.48766649     0.20500
C119        C  0.69639285  0.51568924  0.49305447    -0.54400
C120        C  0.69532964  0.48602614  0.48161080     0.09600
C121        C  0.73059454  0.49068027  0.52197476    -0.53900
C122        C  0.72827259  0.46044219  0.51201844     0.10200
H123        H  0.77258074  0.53461094  0.48320202     0.14700
H124        H  0.72371827  0.43701577  0.48046883     0.00500
H125        H  0.68124298  0.53736499  0.48821077     0.15000
H126        H  0.73292681  0.49308729  0.53928523     0.14800
In127      In  0.80704717  0.31506394  0.83370041     1.36900
C128        C  0.81003420  0.38240009  0.83320931     0.77700
O129        O  0.75503522  0.32595182  0.84552195    -0.60700
O130        O  0.77916198  0.28328727  0.85882847    -0.51700
C131        C  0.78994881  0.28058452  0.79869047     0.70400
O132        O  0.78900209  0.31236991  0.79991596    -0.46500
C133        C  0.87319400  0.30237604  0.83816425     0.75100
O134        O  0.80050602  0.36484820  0.81745218    -0.58400
O135        O  0.85286239  0.30086337  0.85383156    -0.48500
O136        O  0.81809763  0.36521702  0.84956154    -0.54800
C137        C  0.75233253  0.30069076  0.85757313     0.85200
O138        O  0.80018431  0.26601843  0.81551339    -0.56700
O139        O  0.85924010  0.30975447  0.82061000    -0.60000
In140      In  0.69724882  0.18475969  0.61510680     1.36900
C141        C  0.62976826  0.18566925  0.61339562     0.77700
O142        O  0.70272585  0.24103986  0.61100003    -0.60700
O143        O  0.71658207  0.21010412  0.58483457    -0.51700
C144        C  0.72403988  0.19240649  0.65438848     0.70400
O145        O  0.69279214  0.19308302  0.65052718    -0.46500
C146        C  0.71028906  0.12050776  0.60309659     0.75100
O147        O  0.64614259  0.17928120  0.63028452    -0.58400
O148        O  0.68251763  0.13107434  0.61010075    -0.48500
O149        O  0.64802884  0.19275798  0.59734914    -0.54800
C150        C  0.71344360  0.23982763  0.59195581     0.85200
O151        O  0.74205026  0.18760502  0.63794664    -0.56700
O152        O  0.73260613  0.14327497  0.60203895    -0.60000
In153      In  0.66499923  0.17132574  0.33198312     1.36900
C154        C  0.59826016  0.17445084  0.33564196     0.77700
O155        O  0.65294523  0.11636587  0.33022834    -0.60700
O156        O  0.69756885  0.12966118  0.34676253    -0.51700
C157        C  0.69588716  0.18177002  0.29464208     0.70400
O158        O  0.66416890  0.18129679  0.29673136    -0.46500
C159        C  0.68006885  0.22719394  0.35382457     0.75100
O160        O  0.61320602  0.17081601  0.31789741    -0.58400
O161        O  0.68160685  0.19815223  0.36230521    -0.48500
O162        O  0.61759177  0.17683817  0.35170490    -0.54800
C163        C  0.67824306  0.10615824  0.34056025     0.85200
O164        O  0.71205672  0.17633359  0.31177652    -0.56700
O165        O  0.67119154  0.22721962  0.33442142    -0.60000
In166      In  0.79002697  0.30268673  0.11658304     1.36900
C167        C  0.79209247  0.37002913  0.11108525     0.77700
O168        O  0.84433314  0.29702287  0.12661075    -0.60700
O169        O  0.83098191  0.27838303  0.09606146    -0.51700
C170        C  0.77978745  0.27522323  0.15497787     0.70400
O171        O  0.78339870  0.30650654  0.15203512    -0.46500
C172        C  0.73294009  0.28376397  0.09618705     0.75100
O173        O  0.78267073  0.35586501  0.12810578    -0.58400
O174        O  0.76199199  0.27434574  0.09021681    -0.48500
O175        O  0.80068430  0.34958794  0.09649258    -0.54800
C176        C  0.85428478  0.28280111  0.10964330     0.85200
O177        O  0.78189511  0.25775301  0.13803163    -0.56700
O178        O  0.73351028  0.30273670  0.11240410    -0.60000
C179        C  0.51638359  0.26785128  0.01009151     0.86600
C180        C  0.51223409  0.23507956  0.99640947    -0.53600
C181        C  0.48535762  0.23554410  0.98231204     0.09500
C182        C  0.46299286  0.26725992  0.98604228     0.20500
C183        C  0.51521074  0.29681280  0.99300035    -0.54400
C184        C  0.48832552  0.29507367  0.97914337     0.09600
C185        C  0.48328117  0.27148935  0.02251555    -0.53900
C186        C  0.45527149  0.27117712  0.00997658     0.10200
H187        H  0.53369187  0.21832204  0.99381841     0.14700
H188        H  0.43925534  0.26725253  0.97646132     0.00500
H189        H  0.53814458  0.30868269  0.98716300     0.15000
H190        H  0.48210760  0.27357826  0.03988553     0.14800
In191      In  0.27906151  0.19881565  0.32458813     1.36900
C192        C  0.34540616  0.19339750  0.33071127     0.77700
O193        O  0.28926798  0.25288947  0.33083111    -0.60700
O194        O  0.25071527  0.23031087  0.34943667    -0.51700
C195        C  0.25061560  0.21496620  0.28733720     0.70400
O196        O  0.28195636  0.21077353  0.28992358    -0.46500
C197        C  0.26213802  0.13435813  0.33142187     0.75100
O198        O  0.33234526  0.19806339  0.31248297    -0.58400
O199        O  0.25877696  0.15679839  0.34572266    -0.48500
O200        O  0.32430526  0.19100222  0.34581224    -0.54800
C201        C  0.26761159  0.25677091  0.34537626     0.85200
O202        O  0.23321772  0.21009421  0.30411422    -0.56700
O203        O  0.27234379  0.14537606  0.31361412    -0.60000
In204      In  0.16967031  0.31004966  0.10079250     1.36900
C205        C  0.17812854  0.37641259  0.09790424     0.77700
O206        O  0.19526085  0.29367516  0.06982921    -0.60700
O207        O  0.22453537  0.29534927  0.09820993    -0.51700
C208        C  0.17621594  0.28749821  0.14100876     0.70400
O209        O  0.17573095  0.31846220  0.13620178    -0.46500
C210        C  0.10487226  0.29462707  0.09132054     0.75100
O211        O  0.16568613  0.36236741  0.11427449    -0.58400
O212        O  0.12781925  0.27254877  0.09273440    -0.48500
O213        O  0.18567086  0.35654959  0.08279115    -0.54800
C214        C  0.22423534  0.29043689  0.07820915     0.85200
O215        O  0.17383653  0.26807363  0.12503111    -0.56700
O216        O  0.11572227  0.32434517  0.09304564    -0.60000
C217        C  0.71738107  0.45108487  0.43027264     0.86600
C218        C  0.75078451  0.45635033  0.44351418    -0.53600
C219        C  0.75233756  0.48653327  0.45462895     0.09500
C220        C  0.72247777  0.50985558  0.44833719     0.20500
C221        C  0.68876212  0.45916190  0.44662592    -0.54400
C222        C  0.69253565  0.48906656  0.45755527     0.09600
C223        C  0.71698422  0.48038396  0.41444124    -0.53900
C224        C  0.71988559  0.51117703  0.42376963     0.10200
H225        H  0.76528602  0.43505546  0.44949212     0.14700
H226        H  0.72448849  0.53562410  0.45536538     0.00500
H227        H  0.67327296  0.43889989  0.45314390     0.15000
H228        H  0.71392711  0.47700244  0.39724859     0.14800
In229      In  0.68269341  0.79303975  0.32754475     1.36900
C230        C  0.61599613  0.80123941  0.32975512     0.77700
O231        O  0.67317486  0.73858431  0.33327916    -0.60700
O232        O  0.71392536  0.76037977  0.35029198    -0.51700
C233        C  0.70874311  0.77718574  0.28984288     0.70400
O234        O  0.67741312  0.78105246  0.29293346    -0.46500
C235        C  0.70196919  0.85542465  0.33874218     0.75100
O236        O  0.63277131  0.80730138  0.31298381    -0.58400
O237        O  0.69255289  0.83383155  0.35241596    -0.48500
O238        O  0.63340411  0.79111062  0.34545188    -0.54800
C239        C  0.69696132  0.73393499  0.34632552     0.85200
O240        O  0.72717198  0.78251356  0.30607830    -0.56700
O241        O  0.70337233  0.84422844  0.31989165    -0.60000
In242      In  0.81181834  0.69241565  0.10491747     1.36900
C243        C  0.81163908  0.62465969  0.10458742     0.77700
O244        O  0.75648725  0.70074382  0.10010533    -0.60700
O245        O  0.78916126  0.71699580  0.07520608    -0.51700
C246        C  0.79511013  0.71338386  0.14387573     0.70400
O247        O  0.80484579  0.68355978  0.14009312    -0.46500
C248        C  0.87457138  0.71352644  0.09520519     0.75100
O249        O  0.82916598  0.64194441  0.11739128    -0.58400
O250        O  0.85751880  0.72529680  0.11056016    -0.48500
O251        O  0.79495330  0.64223069  0.09141516    -0.54800
C252        C  0.75907077  0.71431241  0.08192258     0.85200
O253        O  0.79543099  0.73287169  0.12783759    -0.56700
O254        O  0.85851576  0.69257982  0.08388979    -0.60000
C255        C  0.47397911  0.74578633  0.00503093     0.86600
C256        C  0.47862869  0.77698444  0.99005345    -0.53600
C257        C  0.50787796  0.77678448  0.97804377     0.09500
C258        C  0.53137116  0.74726497  0.98495045     0.20500
C259        C  0.48023104  0.71495940  0.98969159    -0.54400
C260        C  0.50946925  0.71691068  0.97775137     0.09600
C261        C  0.50461605  0.74594606  0.01990505    -0.53900
C262        C  0.53460765  0.74658114  0.00939117     0.10200
H263        H  0.45676996  0.79168216  0.98497916     0.14700
H264        H  0.55672137  0.74789512  0.97719571     0.00500
H265        H  0.45920453  0.70054467  0.98324056     0.15000
H266        H  0.50277286  0.74503846  0.03729404     0.14800
In267      In  0.19462078  0.69614742  0.10267105     1.36900
C268        C  0.19853638  0.62958361  0.09645739     0.77700
O269        O  0.14007993  0.68470940  0.10810255    -0.60700
O270        O  0.15112187  0.72715802  0.08879307    -0.51700
C271        C  0.20092943  0.71960788  0.14235467     0.70400
O272        O  0.20486099  0.68891562  0.13746799    -0.46500
C273        C  0.24870917  0.71991019  0.08111110     0.75100
O274        O  0.20779973  0.64405229  0.11347053    -0.58400
O275        O  0.21985938  0.71698733  0.07261313    -0.48500
O276        O  0.18880368  0.64966065  0.08198351    -0.54800
C277        C  0.12849101  0.70887623  0.09720479     0.85200
O278        O  0.19357891  0.73855382  0.12670495    -0.56700
O279        O  0.24931371  0.71127660  0.10052694    -0.60000
In280      In  0.29447335  0.81717891  0.32604500     1.36900
C281        C  0.36159987  0.81399460  0.32813339     0.77700
O282        O  0.30382096  0.87213506  0.32192167    -0.60700
O283        O  0.26032914  0.85849842  0.33955254    -0.51700
C284        C  0.26504181  0.80251765  0.28893516     0.70400
O285        O  0.29498958  0.81309613  0.29043921    -0.46500
C286        C  0.28130741  0.76348444  0.35039634     0.75100
O287        O  0.34476730  0.80606997  0.31175987    -0.58400
O288        O  0.27696005  0.79326420  0.35728680    -0.48500
O289        O  0.34371064  0.82339816  0.34388874    -0.54800
C290        C  0.27829932  0.88218707  0.33217687     0.85200
O291        O  0.24911271  0.80166063  0.30647133    -0.56700
O292        O  0.29212491  0.76204410  0.33143469    -0.60000
C293        C  0.26705714  0.53959946  0.42897241     0.86600
C294        C  0.23652191  0.53615397  0.44461425    -0.53600
C295        C  0.23607273  0.50672073  0.45636981     0.09500
C296        C  0.26413082  0.48212776  0.44871520     0.20500
C297        C  0.29851157  0.53168754  0.44344857    -0.54400
C298        C  0.29588499  0.50257840  0.45532013     0.09600
C299        C  0.26441573  0.50924683  0.41391743    -0.53900
C300        C  0.26251362  0.47912999  0.42424425     0.10200
H301        H  0.22296878  0.55850019  0.45009654     0.14700
H302        H  0.26271911  0.45683607  0.45645613     0.00500
H303        H  0.31428884  0.55173428  0.44979526     0.15000
H304        H  0.26427540  0.51143059  0.39653883     0.14800
C305        C  0.27501526  0.73211607  0.36283884    -0.11900
C306        C  0.26558244  0.73164281  0.38476344     0.03600
C307        C  0.26234379  0.70057384  0.39546152    -0.12400
C308        C  0.26823728  0.66996195  0.38467704     0.18500
C309        C  0.27668915  0.67035462  0.36282334    -0.09400
C310        C  0.27989432  0.70109535  0.35213490    -0.02400
H311        H  0.25585124  0.70026805  0.41236129     0.05000
C312        C  0.26763979  0.63776345  0.39655970     0.20500
H313        H  0.28692563  0.70055077  0.33532887     0.10200
C314        C  0.23911963  0.61698084  0.39536690    -0.15800
C315        C  0.23868709  0.58529755  0.40539422     0.03200
C316        C  0.26742177  0.57365845  0.41704367    -0.11100
C317        C  0.29642083  0.59463491  0.41731226    -0.01100
C318        C  0.29641995  0.62643246  0.40757378    -0.06300
H319        H  0.21714102  0.62538927  0.38640892     0.06200
H320        H  0.31983766  0.58671200  0.42459788     0.09600
Br321      Br  0.28567339  0.62951655  0.34711080    -0.06000
Br322      Br  0.25756053  0.77189714  0.40126188    -0.02900
Br323      Br  0.19774150  0.55969117  0.40217422    -0.00100
Br324      Br  0.33676946  0.65336499  0.40922216    -0.04500
C325        C  0.25086725  0.79127750  0.26821781    -0.11900
C326        C  0.22570228  0.76596511  0.26670075     0.03600
C327        C  0.21529531  0.75452920  0.24647482    -0.12400
C328        C  0.23008760  0.76738449  0.22772467     0.18500
C329        C  0.25539595  0.79220501  0.22923184    -0.09400
C330        C  0.26539106  0.80408612  0.24932021    -0.02400
H331        H  0.19627738  0.73487049  0.24535425     0.05000
C332        C  0.22004882  0.75386001  0.20664262     0.20500
H333        H  0.28521751  0.82296490  0.25016244     0.10200
C334        C  0.20100503  0.77421465  0.19272935    -0.15800
C335        C  0.19391354  0.76360873  0.17178589     0.03200
C336        C  0.20583610  0.73182580  0.16457836    -0.11100
C337        C  0.22396929  0.71109441  0.17891282    -0.01100
C338        C  0.23134026  0.72196064  0.19970790    -0.06300
H339        H  0.19226772  0.79882277  0.19807728     0.06200
H340        H  0.23348867  0.68669174  0.17373702     0.09600
Br341      Br  0.27859022  0.80898151  0.20433966    -0.06000
Br342      Br  0.20702690  0.74356898  0.29136587    -0.02900
Br343      Br  0.16769389  0.79373402  0.15420917    -0.00100
Br344      Br  0.25884916  0.69341445  0.21755357    -0.04500
C345        C  0.44012095  0.74587028  0.01733881    -0.11900
C346        C  0.42851540  0.77476176  0.02885467     0.03600
C347        C  0.39663920  0.77452018  0.03891284    -0.12400
C348        C  0.37620322  0.74554642  0.03856584     0.18500
C349        C  0.38841788  0.71624537  0.02838671    -0.09400
C350        C  0.41981884  0.71650817  0.01805929    -0.02400
H351        H  0.38791775  0.79692979  0.04729045     0.05000
C352        C  0.34281621  0.74515343  0.04957462     0.20500
H353        H  0.42837448  0.69289921  0.01126374     0.10200
C354        C  0.31320124  0.74143342  0.03733236    -0.15800
C355        C  0.28191693  0.73458965  0.04709344     0.03200
C356        C  0.27983873  0.73145958  0.06969567    -0.11100
C357        C  0.30929260  0.73740042  0.08190696    -0.01100
C358        C  0.34045903  0.74419958  0.07209082    -0.06300
H359        H  0.31477209  0.74225980  0.01997289     0.06200
H360        H  0.30843311  0.73563425  0.09925120     0.09600
Br361      Br  0.36382152  0.67437391  0.02914637    -0.06000
Br362      Br  0.45506382  0.81516630  0.03222236    -0.02900
Br363      Br  0.24401329  0.72757854  0.02832914    -0.00100
Br364      Br  0.37956092  0.74939258  0.09008472    -0.04500
C365        C  0.91108622  0.72149806  0.09220105    -0.11900
C366        C  0.92984759  0.71069101  0.07407947     0.03600
C367        C  0.96531093  0.71287516  0.07419867    -0.12400
C368        C  0.98263061  0.72592714  0.09201849     0.18500
C369        C  0.96385753  0.73957741  0.10919133    -0.09400
C370        C  0.92851183  0.73720831  0.10920013    -0.02400
H371        H  0.97952216  0.70304416  0.06067735     0.05000
C372        C  0.01999060  0.72227958  0.09327695     0.20500
H373        H  0.91477669  0.74633927  0.12310510     0.10200
C374        C  0.04103611  0.74017543  0.07910548    -0.15800
C375        C  0.07644139  0.73638156  0.07982690     0.03200
C376        C  0.09133983  0.71459261  0.09520042    -0.11100
C377        C  0.06991811  0.69640240  0.10905996    -0.01100
C378        C  0.03476440  0.69963925  0.10799064    -0.06300
H379        H  0.02983260  0.75690629  0.06729669     0.06200
H380        H  0.08048898  0.67900521  0.12071199     0.09600
Br381      Br  0.98547103  0.76060438  0.13336520    -0.06000
Br382      Br  0.90900188  0.69239253  0.04877953    -0.02900
Br383      Br  0.10244780  0.76002983  0.05858955    -0.00100
Br384      Br  0.00799937  0.67079797  0.12609658    -0.04500
C385        C  0.72870916  0.72564692  0.06997155    -0.11900
C386        C  0.72554052  0.72203467  0.04751523     0.03600
C387        C  0.69438173  0.72883388  0.03755778    -0.12400
C388        C  0.66628543  0.73945924  0.04962546     0.18500
C389        C  0.66990341  0.74460867  0.07182949    -0.09400
C390        C  0.70081290  0.73755146  0.08181136    -0.02400
H391        H  0.69168458  0.72461357  0.02045693     0.05000
C392        C  0.63266171  0.74192247  0.03926394     0.20500
H393        H  0.70282522  0.74069139  0.09903869     0.10200
C394        C  0.61077724  0.71404759  0.04034005    -0.15800
C395        C  0.57869350  0.71521656  0.03081851     0.03200
C396        C  0.56788855  0.74485074  0.02026830    -0.11100
C397        C  0.58997594  0.77255200  0.01890333    -0.01100
C398        C  0.62217128  0.77129587  0.02835879    -0.06300
H399        H  0.61888798  0.69115144  0.04841943     0.06200
H400        H  0.58211775  0.79521054  0.01046752     0.09600
Br401      Br  0.63295412  0.76027918  0.08921554    -0.06000
Br402      Br  0.76155893  0.70469588  0.02998138    -0.02900
Br403      Br  0.55152823  0.67501216  0.03137540    -0.00100
Br404      Br  0.65097371  0.81011922  0.02611164    -0.04500
C405        C  0.57889744  0.80479910  0.33083726    -0.11900
C406        C  0.56179402  0.83179261  0.32073522     0.03600
C407        C  0.52645321  0.83357517  0.32164953    -0.12400
C408        C  0.50773060  0.80867246  0.33237496     0.18500
C409        C  0.52472756  0.78163208  0.34237930    -0.09400
C410        C  0.56010501  0.78012858  0.34181329    -0.02400
H411        H  0.51345183  0.85434634  0.31382258     0.05000
C412        C  0.47043504  0.81019713  0.33163850     0.20500
H413        H  0.57293062  0.75901763  0.34938718     0.10200
C414        C  0.45413958  0.80199348  0.31240968    -0.15800
C415        C  0.41887922  0.80304131  0.31076498     0.03200
C416        C  0.39911104  0.81252743  0.32881680    -0.11100
C417        C  0.41575031  0.82110051  0.34803461    -0.01100
C418        C  0.45108543  0.82008359  0.34952463    -0.06300
H419        H  0.46905564  0.79463448  0.29855792     0.06200
H420        H  0.40128199  0.82874474  0.36199963     0.09600
Br421      Br  0.50057398  0.74529169  0.35586223    -0.06000
Br422      Br  0.58533923  0.86759362  0.30624997    -0.02900
Br423      Br  0.40034657  0.79143087  0.28318152    -0.00100
Br424      Br  0.47187138  0.83315487  0.37608515    -0.04500
C425        C  0.72256071  0.76720342  0.26884286    -0.11900
C426        C  0.70512482  0.74431732  0.25542635     0.03600
C427        C  0.71832931  0.73620501  0.23528271    -0.12400
C428        C  0.74878566  0.75047400  0.22824725     0.18500
C429        C  0.76633784  0.77317865  0.24159083    -0.09400
C430        C  0.75334549  0.78112815  0.26186945    -0.02400
H431        H  0.70490342  0.71851358  0.22508257     0.05000
C432        C  0.76154021  0.74155550  0.20678621     0.20500
H433        H  0.76686035  0.79887493  0.27197786     0.10200
C434        C  0.74596334  0.75577664  0.18872235    -0.15800
C435        C  0.75672532  0.74721348  0.16805329     0.03200
C436        C  0.78374022  0.72415756  0.16532444    -0.11100
C437        C  0.79894942  0.70959656  0.18348611    -0.01100
C438        C  0.78797757  0.71805870  0.20412774    -0.06300
H439        H  0.72500231  0.77322829  0.19073891     0.06200
H440        H  0.81929275  0.69139694  0.18161480     0.09600
Br441      Br  0.80732326  0.79474043  0.23233520    -0.06000
Br442      Br  0.66426724  0.72182653  0.26415548    -0.02900
Br443      Br  0.73150032  0.76546124  0.14436307    -0.00100
Br444      Br  0.80871393  0.69593462  0.22819307    -0.04500
C445        C  0.71921229  0.54351853  0.41163614    -0.11900
C446        C  0.74008766  0.54946058  0.39357835     0.03600
C447        C  0.73848587  0.58063160  0.38290042    -0.12400
C448        C  0.71656676  0.60621201  0.39000419     0.18500
C449        C  0.69590250  0.60039413  0.40801613    -0.09400
C450        C  0.69745445  0.56934391  0.41871447    -0.02400
H451        H  0.75445249  0.58499671  0.36903043     0.05000
C452        C  0.71408998  0.63822683  0.37786345     0.20500
H453        H  0.68120740  0.56519571  0.43248169     0.10200
C454        C  0.69027751  0.64059912  0.36135478    -0.15800
C455        C  0.68509774  0.67101091  0.35039575     0.03200
C456        C  0.70369239  0.70033671  0.35626187    -0.11100
C457        C  0.72858265  0.69737349  0.37234339    -0.01100
C458        C  0.73397433  0.66657332  0.38301876    -0.06300
H459        H  0.67530735  0.61861983  0.35712406     0.06200
H460        H  0.74358425  0.71915389  0.37687836     0.09600
Br461      Br  0.66484765  0.63405130  0.41833747    -0.06000
Br462      Br  0.77266392  0.51701948  0.38349727    -0.02900
Br463      Br  0.65232571  0.66964011  0.32756540    -0.00100
Br464      Br  0.76835669  0.66418480  0.40470351    -0.04500
C465        C  0.18277520  0.41323412  0.09653665    -0.11900
C466        C  0.21254742  0.42770391  0.08805777     0.03600
C467        C  0.21578483  0.46294296  0.08720183    -0.12400
C468        C  0.18968705  0.48393812  0.09468741     0.18500
C469        C  0.16005532  0.46949627  0.10316813    -0.09400
C470        C  0.15688207  0.43436419  0.10417601    -0.02400
H471        H  0.23888546  0.47401842  0.08100110     0.05000
C472        C  0.19414253  0.52089690  0.09439606     0.20500
H473        H  0.13394489  0.42349032  0.11076067     0.10200
C474        C  0.18305156  0.53948263  0.07660197    -0.15800
C475        C  0.18455401  0.57489022  0.07655724     0.03200
C476        C  0.19814927  0.59217141  0.09452006    -0.11100
C477        C  0.20980056  0.57307521  0.11212185    -0.01100
C478        C  0.20752974  0.53786071  0.11225756    -0.06300
H479        H  0.17223901  0.52637828  0.06294832     0.06200
H480        H  0.21991450  0.58556625  0.12620703     0.09600
Br481      Br  0.12350406  0.49689805  0.11370788    -0.06000
Br482      Br  0.25041051  0.40065008  0.07902318    -0.02900
Br483      Br  0.16583966  0.59743098  0.05195492    -0.00100
Br484      Br  0.22137358  0.51397701  0.13761282    -0.04500
C485        C  0.25612299  0.09782260  0.33493668    -0.11900
C486        C  0.26682590  0.08117274  0.35382068     0.03600
C487        C  0.26627897  0.04574680  0.35483480    -0.12400
C488        C  0.25480176  0.02652274  0.33738894     0.18500
C489        C  0.24216097  0.04309781  0.31909615    -0.09400
C490        C  0.24321401  0.07843207  0.31788727    -0.02400
H491        H  0.27638272  0.03308686  0.36887216     0.05000
C492        C  0.26073156  0.98960790  0.33719052     0.20500
H493        H  0.23480247  0.09077691  0.30329979     0.10200
C494        C  0.23601610  0.96725282  0.34490887    -0.15800
C495        C  0.24098046  0.93205864  0.34390006     0.03200
C496        C  0.27120275  0.91889615  0.33488710    -0.11100
C497        C  0.29598198  0.94172858  0.32759917    -0.01100
C498        C  0.29101694  0.97658770  0.32871562    -0.06300
H499        H  0.21265912  0.97722858  0.35151131     0.06200
H500        H  0.31951350  0.93252168  0.32080313     0.09600
Br501      Br  0.22502560  0.01822205  0.29497858    -0.06000
Br502      Br  0.28593494  0.10496835  0.37775449    -0.02900
Br503      Br  0.20526888  0.90392940  0.35470941    -0.00100
Br504      Br  0.32630035  0.00552527  0.31815293    -0.04500
C505        C  0.26329710  0.28951311  0.35685835    -0.11900
C506        C  0.28184015  0.31885556  0.35097526     0.03600
C507        C  0.27857292  0.34852035  0.36296105    -0.12400
C508        C  0.25727540  0.35002772  0.38082822     0.18500
C509        C  0.23813316  0.32143909  0.38653690    -0.09400
C510        C  0.24120427  0.29147910  0.37457472    -0.02400
H511        H  0.29319231  0.37061223  0.35847873     0.05000
C512        C  0.25655195  0.38170368  0.39340000     0.20500
H513        H  0.22670257  0.26951921  0.37939741     0.10200
C514        C  0.23309815  0.40695670  0.38809929    -0.15800
C515        C  0.23439699  0.43877184  0.39796842     0.03200
C516        C  0.25985897  0.44584805  0.41325122    -0.11100
C517        C  0.28273093  0.42009533  0.41891774    -0.01100
C518        C  0.28131498  0.38829457  0.40906994    -0.06300
H519        H  0.21392843  0.40197907  0.37606498     0.06200
H520        H  0.30217232  0.42491689  0.43080117     0.09600
Br521      Br  0.20828194  0.32214424  0.41080841    -0.06000
Br522      Br  0.31255935  0.32121580  0.32704396    -0.02900
Br523      Br  0.19958576  0.47055986  0.39074163    -0.00100
Br524      Br  0.31405311  0.35469133  0.41710043    -0.04500
C525        C  0.17969590  0.27560834  0.16353159    -0.11900
C526        C  0.18239449  0.24095160  0.16909813     0.03600
C527        C  0.18830260  0.23171497  0.19045364    -0.12400
C528        C  0.19168494  0.25623795  0.20651945     0.18500
C529        C  0.18766526  0.29056660  0.20128796    -0.09400
C530        C  0.18151674  0.29998026  0.18000542    -0.02400
H531        H  0.19190428  0.20525260  0.19441409     0.05000
C532        C  0.20563851  0.24593521  0.22746569     0.20500
H533        H  0.17926671  0.32665646  0.17627582     0.10200
C534        C  0.24077725  0.24283370  0.22916247    -0.15800
C535        C  0.25596681  0.23241158  0.24825068     0.03200
C536        C  0.23565160  0.22516379  0.26645081    -0.11100
C537        C  0.20020185  0.22824639  0.26461132    -0.01100
C538        C  0.18514075  0.23833105  0.24525517    -0.06300
H539        H  0.25655970  0.24839700  0.21536770     0.06200
H540        H  0.18407306  0.22267340  0.27822115     0.09600
Br541      Br  0.19262012  0.32546694  0.22247960    -0.06000
Br542      Br  0.18034270  0.20468491  0.14861208    -0.02900
Br543      Br  0.30452366  0.22868246  0.24759535    -0.00100
Br544      Br  0.13672318  0.24096299  0.24366140    -0.04500
C545        C  0.42011007  0.27326289  0.01850527    -0.11900
C546        C  0.40969980  0.29944689  0.03243938     0.03600
C547        C  0.37674993  0.29956747  0.04077317    -0.12400
C548        C  0.35348753  0.27419516  0.03526669     0.18500
C549        C  0.36331852  0.24889755  0.02059307    -0.09400
C550        C  0.39639433  0.24859254  0.01235159    -0.02400
H551        H  0.36917182  0.31960765  0.05164681     0.05000
C552        C  0.31948515  0.27453925  0.04546437     0.20500
H553        H  0.40383823  0.22857227  0.00142804     0.10200
C554        C  0.29125053  0.28589335  0.03383941    -0.15800
C555        C  0.25962892  0.29020514  0.04384331     0.03200
C556        C  0.25581984  0.28285697  0.06597650    -0.11100
C557        C  0.28406935  0.27048853  0.07731276    -0.01100
C558        C  0.31554359  0.26631325  0.06728759    -0.06300
H559        H  0.29414842  0.29263539  0.01708245     0.06200
H560        H  0.28188622  0.26458562  0.09423756     0.09600
Br561      Br  0.33285363  0.21368856  0.01197760    -0.06000
Br562      Br  0.43857729  0.33682249  0.03954205    -0.02900
Br563      Br  0.22388804  0.30904953  0.02670412    -0.00100
Br564      Br  0.35274347  0.24971160  0.08410464    -0.04500
C565        C  0.81020550  0.58708451  0.10497045    -0.11900
C566        C  0.82282548  0.56764740  0.12233960     0.03600
C567        C  0.81995270  0.53233412  0.12196865    -0.12400
C568        C  0.80453276  0.51568794  0.10469682     0.18500
C569        C  0.79152363  0.53487059  0.08756230    -0.09400
C570        C  0.79458771  0.57015129  0.08774107    -0.02400
H571        H  0.82945220  0.51771280  0.13539874     0.05000
C572        C  0.80081739  0.47843477  0.10546500     0.20500
H573        H  0.78431994  0.58440759  0.07438909     0.10200
C574        C  0.77668567  0.46438051  0.11928991    -0.15800
C575        C  0.77310572  0.42928412  0.12117424     0.03200
C576        C  0.79374058  0.40738855  0.10878274    -0.11100
C577        C  0.81764257  0.42164779  0.09470862    -0.01100
C578        C  0.82166452  0.45683009  0.09326634    -0.06300
H579        H  0.76068858  0.48088373  0.12881484     0.06200
H580        H  0.83413712  0.40537404  0.08538010     0.09600
Br581      Br  0.76803113  0.51408049  0.06407101    -0.06000
Br582      Br  0.84260298  0.58714874  0.14766513    -0.02900
Br583      Br  0.73904284  0.41331463  0.14071554    -0.00100
Br584      Br  0.85732046  0.47433336  0.07556274    -0.04500
C585        C  0.89062214  0.27382290  0.10615078    -0.11900
C586        C  0.90362201  0.26232834  0.08622927     0.03600
C587        C  0.93881340  0.26052320  0.08300278    -0.12400
C588        C  0.96150096  0.26864498  0.09953523     0.18500
C589        C  0.94859774  0.27669220  0.11995550    -0.09400
C590        C  0.91360011  0.27946073  0.12306983    -0.02400
H591        H  0.94855291  0.25362606  0.06733703     0.05000
C592        C  0.99808156  0.27282131  0.09472067     0.20500
H593        H  0.90444574  0.28723723  0.13870921     0.10200
C594        C  0.00908555  0.30372176  0.08619105    -0.15800
C595        C  0.04364166  0.31068537  0.08364631     0.03200
C596        C  0.06814849  0.28638922  0.08982109    -0.11100
C597        C  0.05687630  0.25465155  0.09718370    -0.01100
C598        C  0.02222069  0.24780578  0.09969342    -0.06300
H599        H  0.99062975  0.32295027  0.08201926     0.06200
H600        H  0.07508982  0.23556610  0.10196481     0.09600
Br601      Br  0.97792902  0.28594234  0.14380189    -0.06000
Br602      Br  0.87526971  0.24932212  0.06261062    -0.02900
Br603      Br  0.05531264  0.35380541  0.07153332    -0.00100
Br604      Br  0.00897795  0.20449660  0.11065599    -0.04500
C605        C  0.54765146  0.26717361  0.02484300    -0.11900
C606        C  0.55315568  0.24046209  0.03975279     0.03600
C607        C  0.58274736  0.23965421  0.05227421    -0.12400
C608        C  0.60712925  0.26519780  0.05051018     0.18500
C609        C  0.60137869  0.29225685  0.03643959    -0.09400
C610        C  0.57189509  0.29342614  0.02415547    -0.02400
H611        H  0.58668126  0.21910953  0.06351241     0.05000
C612        C  0.63804055  0.26464831  0.06391159     0.20500
H613        H  0.56840400  0.31568438  0.01445920     0.10200
C614        C  0.66797060  0.25079814  0.05555716    -0.15800
C615        C  0.69913337  0.25554568  0.06596754     0.03200
C616        C  0.70060499  0.27449575  0.08527375    -0.11100
C617        C  0.67003580  0.28670473  0.09406961    -0.01100
C618        C  0.63911434  0.28216822  0.08351142    -0.06300
H619        H  0.66729874  0.23755959  0.04032544     0.06200
H620        H  0.67020796  0.30105564  0.10888658     0.09600
Br621      Br  0.63326293  0.32862656  0.03356920    -0.06000
Br622      Br  0.52112908  0.20456360  0.04430104    -0.02900
Br623      Br  0.73840243  0.23695809  0.05211038    -0.00100
Br624      Br  0.59924447  0.30257857  0.09553644    -0.04500
C625        C  0.56112591  0.17624405  0.33732227    -0.11900
C626        C  0.54014618  0.15611870  0.32420120     0.03600
C627        C  0.50507624  0.16015986  0.32507268    -0.12400
C628        C  0.49038909  0.18421989  0.33870472     0.18500
C629        C  0.51110048  0.20377698  0.35222862    -0.09400
C630        C  0.54629377  0.19945722  0.35161276    -0.02400
H631        H  0.48912374  0.14480253  0.31481171     0.05000
C632        C  0.45345225  0.18906623  0.33779562     0.20500
H633        H  0.56215484  0.21512898  0.36173154     0.10200
C634        C  0.43282912  0.17342276  0.35313758    -0.15800
C635        C  0.39751618  0.17455527  0.35131066     0.03200
C636        C  0.38244267  0.19182208  0.33387755    -0.11100
C637        C  0.40335303  0.20788617  0.31875467    -0.01100
C638        C  0.43855082  0.20655552  0.32058104    -0.06300
H639        H  0.44429805  0.15937817  0.36619158     0.06200
H640        H  0.39230360  0.22144394  0.30535450     0.09600
Br641      Br  0.49245051  0.23773861  0.37081335    -0.06000
Br642      Br  0.55769238  0.12196811  0.30527666    -0.02900
Br643      Br  0.37178967  0.14965691  0.37210836    -0.00100
Br644      Br  0.46542447  0.22850125  0.29902868    -0.04500
C645        C  0.70777646  0.89159937  0.34382306    -0.11900
C646        C  0.72661602  0.91291407  0.33006874     0.03600
C647        C  0.72506568  0.94808078  0.33266012    -0.12400
C648        C  0.70548498  0.96265231  0.34903514     0.18500
C649        C  0.68901210  0.94130769  0.36384002    -0.09400
C650        C  0.69025974  0.90614156  0.36116411    -0.02400
H651        H  0.73811269  0.96418644  0.32128456     0.05000
C652        C  0.69902730  0.99967334  0.34868896     0.20500
H653        H  0.67592998  0.89026400  0.37203320     0.10200
C654        C  0.66592918  0.01092945  0.34482251    -0.15800
C655        C  0.65846828  0.04535541  0.34297573     0.03200
C656        C  0.68471368  0.06962254  0.34443512    -0.11100
C657        C  0.71784072  0.05835895  0.34877257    -0.01100
C658        C  0.72510082  0.02372145  0.35092329    -0.06300
H659        H  0.64566102  0.99266697  0.34309341     0.06200
H660        H  0.73828500  0.07647438  0.35014485     0.09600
Br661      Br  0.66372868  0.95910314  0.38762770    -0.06000
Br662      Br  0.75483387  0.89571588  0.30741164    -0.02900
Br663      Br  0.61151580  0.05696447  0.33935878    -0.00100
Br664      Br  0.77069485  0.01042368  0.35741676    -0.04500
C665        C  0.68708602  0.25887186  0.36560856    -0.11900
C666        C  0.70341632  0.28644616  0.35559596     0.03600
C667        C  0.70830312  0.31662979  0.36690575    -0.12400
C668        C  0.69654144  0.32024307  0.38799886     0.18500
C669        C  0.67966378  0.29305871  0.39790245    -0.09400
C670        C  0.67555685  0.26244900  0.38682657    -0.02400
H671        H  0.72119470  0.33751600  0.35917064     0.05000
C672        C  0.70198299  0.35276496  0.39922810     0.20500
H673        H  0.66238047  0.24175348  0.39457013     0.10200
C674        C  0.67631180  0.37713486  0.39912493    -0.15800
C675        C  0.68111589  0.40883978  0.40868130     0.03200
C676        C  0.71218737  0.41669034  0.41914784    -0.11100
C677        C  0.73809838  0.39196186  0.41866572    -0.01100
C678        C  0.73313953  0.36042541  0.40890076    -0.06300
H679        H  0.65248062  0.37159285  0.39125407     0.06200
H680        H  0.76279235  0.39680921  0.42533187     0.09600
Br681      Br  0.66123699  0.29701962  0.42628197    -0.06000
Br682      Br  0.72058879  0.28413229  0.32677042    -0.02900
Br683      Br  0.64397836  0.44017079  0.40620577    -0.00100
Br684      Br  0.76978517  0.32846172  0.40893053    -0.04500
C685        C  0.71259925  0.18991763  0.27407118    -0.11900
C686        C  0.69675948  0.18378872  0.25413409     0.03600
C687        C  0.71139921  0.19601920  0.23525657    -0.12400
C688        C  0.74219203  0.21366401  0.23568545     0.18500
C689        C  0.75888406  0.21832002  0.25546625    -0.09400
C690        C  0.74406510  0.20643674  0.27441918    -0.02400
H691        H  0.69836224  0.19219972  0.22014531     0.05000
C692        C  0.75503033  0.22885559  0.21553439     0.20500
H693        H  0.75670425  0.21112809  0.28956585     0.10200
C694        C  0.75824309  0.26411615  0.21420608    -0.15800
C695        C  0.76762932  0.27985853  0.19501716     0.03200
C696        C  0.77293542  0.26010131  0.17632012    -0.11100
C697        C  0.77044768  0.22470442  0.17788335    -0.01100
C698        C  0.76182367  0.20905799  0.19723408    -0.06300
H699        H  0.75287572  0.27959703  0.22816599     0.06200
H700        H  0.77497528  0.20896926  0.16392805     0.09600
Br701      Br  0.80190098  0.24066965  0.25746981    -0.06000
Br702      Br  0.65580490  0.15796275  0.25142763    -0.02900
Br703      Br  0.77220890  0.32827509  0.19594243    -0.00100
Br704      Br  0.76028593  0.16053481  0.19787037    -0.04500
C705        C  0.78030769  0.26227391  0.77895727    -0.11900
C706        C  0.75460708  0.27473353  0.76535621     0.03600
C707        C  0.74759814  0.25829292  0.74605143    -0.12400
C708        C  0.76551469  0.22922184  0.73988311     0.18500
C709        C  0.79092471  0.21638183  0.75352924    -0.09400
C710        C  0.79790115  0.23274483  0.77303389    -0.02400
H711        H  0.72798638  0.26834947  0.73567759     0.05000
C712        C  0.75722186  0.21373888  0.71886737     0.20500
H713        H  0.81772096  0.22288939  0.78331576     0.10200
C714        C  0.78051526  0.21590046  0.70190728    -0.15800
C715        C  0.77104809  0.20758181  0.68084172     0.03200
C716        C  0.73742964  0.19729889  0.67647089    -0.11100
C717        C  0.71484800  0.19343039  0.69376762    -0.01100
C718        C  0.72449349  0.20132355  0.71474852    -0.06300
H719        H  0.80571225  0.22563669  0.70490676     0.06200
H720        H  0.68917794  0.18487084  0.69094252     0.09600
Br721      Br  0.81649131  0.17669448  0.74626517    -0.06000
Br722      Br  0.72701207  0.31318652  0.77257507    -0.02900
Br723      Br  0.80459513  0.21336307  0.65885698    -0.00100
Br724      Br  0.69181106  0.19543660  0.73727531    -0.04500
C725        C  0.72846952  0.42777438  0.52350325    -0.11900
C726        C  0.69889882  0.40808938  0.52512356     0.03600
C727        C  0.69988171  0.37699682  0.53581891    -0.12400
C728        C  0.73021604  0.36476133  0.54459591     0.18500
C729        C  0.76008623  0.38384135  0.54224714    -0.09400
C730        C  0.75895505  0.41536097  0.53197672    -0.02400
H731        H  0.67683353  0.36237337  0.53744263     0.05000
C732        C  0.72955779  0.33266140  0.55679757     0.20500
H733        H  0.78199679  0.42996856  0.53026871     0.10200
C734        C  0.72951761  0.30175874  0.54576703    -0.15800
C735        C  0.72524998  0.27105384  0.55674649     0.03200
C736        C  0.72087444  0.27101113  0.57934131    -0.11100
C737        C  0.72178252  0.30219916  0.59027749    -0.01100
C738        C  0.72591076  0.33273295  0.57923220    -0.06300
H739        H  0.73191567  0.30162043  0.52843761     0.06200
H740        H  0.71849605  0.30301906  0.60753395     0.09600
Br741      Br  0.80293946  0.36733237  0.55223410    -0.06000
Br742      Br  0.65648803  0.42287736  0.51336024    -0.02900
Br743      Br  0.72353937  0.23080502  0.53952199    -0.00100
Br744      Br  0.72452341  0.37418161  0.59528336    -0.04500
C745        C  0.72187070  0.90655517  0.59237633    -0.11900
C746        C  0.72513904  0.92344403  0.57249802     0.03600
C747        C  0.73017971  0.95867233  0.57212098    -0.12400
C748        C  0.73270978  0.97721452  0.59129716     0.18500
C749        C  0.73211901  0.95988306  0.61099556    -0.09400
C750        C  0.72654385  0.92504812  0.61140880    -0.02400
H751        H  0.73012543  0.97188312  0.55688756     0.05000
C752        C  0.72793745  0.01436302  0.59108640     0.20500
H753        H  0.72476485  0.91248951  0.62683001     0.10200
C754        C  0.69508274  0.02645581  0.59434046    -0.15800
C755        C  0.68866672  0.06083780  0.59724838     0.03200
C756        C  0.71581985  0.08431024  0.59737137    -0.11100
C757        C  0.74873665  0.07226008  0.59295209    -0.01100
C758        C  0.75486831  0.03753449  0.58968835    -0.06300
H759        H  0.67419799  0.00871975  0.59513141     0.06200
H760        H  0.76985962  0.08969780  0.59254584     0.09600
Br761      Br  0.73614820  0.98324707  0.63789783    -0.06000
Br762      Br  0.71941199  0.90063144  0.54557427    -0.02900
Br763      Br  0.64180946  0.07291514  0.60087946    -0.00100
Br764      Br  0.80014196  0.02263306  0.58382852    -0.04500
C765        C  0.71321153  0.71525131  0.57143547    -0.11900
C766        C  0.71495215  0.68457783  0.58310907     0.03600
C767        C  0.71927455  0.65384552  0.57227282    -0.12400
C768        C  0.72215489  0.65268719  0.54985325     0.18500
C769        C  0.72050696  0.68321480  0.53814984    -0.09400
C770        C  0.71639613  0.71409492  0.54897126    -0.02400
H771        H  0.72049622  0.63057606  0.58143843     0.05000
C772        C  0.72519368  0.61916459  0.53915307     0.20500
H773        H  0.71467712  0.73721913  0.53970041     0.10200
C774        C  0.69904176  0.59562851  0.54168660    -0.15800
C775        C  0.70077234  0.56358106  0.53219344     0.03200
C776        C  0.72857988  0.55472941  0.51878852    -0.11100
C777        C  0.75564471  0.57795266  0.51732056    -0.01100
C778        C  0.75434685  0.60950116  0.52766057    -0.06300
H779        H  0.67714865  0.60215481  0.55134518     0.06200
H780        H  0.77855663  0.57160117  0.50878115     0.09600
Br781      Br  0.72162818  0.68398836  0.50734620    -0.06000
Br782      Br  0.71309791  0.68259476  0.61391635    -0.02900
Br783      Br  0.66438832  0.53301793  0.53896535    -0.00100
Br784      Br  0.79407863  0.63741771  0.52713654    -0.04500
C785        C  0.80889095  0.59945032  0.82712437    -0.11900
C786        C  0.77865985  0.58068958  0.82884616     0.03600
C787        C  0.78014741  0.54554899  0.83144519    -0.12400
C788        C  0.81138827  0.52876749  0.83271380     0.18500
C789        C  0.84155680  0.54750361  0.83131981    -0.09400
C790        C  0.84013224  0.58253078  0.82830568    -0.02400
H791        H  0.75684608  0.53114349  0.83214190     0.05000
C792        C  0.81189298  0.49145773  0.83326203     0.20500
H793        H  0.86355411  0.59670539  0.82730788     0.10200
C794        C  0.80868123  0.47393588  0.81387307    -0.15800
C795        C  0.80814960  0.43860113  0.81336227     0.03200
C796        C  0.81114041  0.41996224  0.83271238    -0.11100
C797        C  0.81463799  0.43781177  0.85215899    -0.01100
C798        C  0.81475652  0.47326054  0.85255556    -0.06300
H799        H  0.80641370  0.48795414  0.79898891     0.06200
H800        H  0.81669518  0.42419974  0.86719177     0.09600
Br801      Br  0.88514631  0.52627810  0.83342364    -0.06000
Br802      Br  0.73479471  0.60131131  0.82635461    -0.02900
Br803      Br  0.80367775  0.41823540  0.78548640    -0.00100
Br804      Br  0.81794547  0.49582863  0.87973987    -0.04500
C805        C  0.73977577  0.79269527  0.66054674    -0.11900
C806        C  0.72165138  0.79750294  0.67993154     0.03600
C807        C  0.73675394  0.78934005  0.69952944    -0.12400
C808        C  0.76998552  0.77703751  0.70043461     0.18500
C809        C  0.78879912  0.77403330  0.68132930    -0.09400
C810        C  0.77368091  0.78187719  0.66159110    -0.02400
H811        H  0.72222327  0.79202612  0.71419724     0.05000
C812        C  0.78315401  0.76495563  0.72130941     0.20500
H813        H  0.78823681  0.77862986  0.64698976     0.10200
C814        C  0.78722837  0.73011145  0.72444498    -0.15800
C815        C  0.79544481  0.71699406  0.74463482     0.03200
C816        C  0.79940519  0.73906612  0.76239460    -0.11100
C817        C  0.79640740  0.77416997  0.75895066    -0.01100
C818        C  0.78840482  0.78713832  0.73864655    -0.06300
H819        H  0.78313335  0.71288888  0.71115457     0.06200
H820        H  0.79969522  0.79167590  0.77216907     0.09600
Br821      Br  0.83515232  0.75948151  0.68152630    -0.06000
Br822      Br  0.67658550  0.81591174  0.68119110    -0.02900
Br823      Br  0.80052080  0.66870255  0.74636902    -0.00100
Br824      Br  0.78509339  0.83528096  0.73518877    -0.04500
C825        C  0.56049455  0.25825243  0.91778036    -0.11900
C826        C  0.57083181  0.23873030  0.89984325     0.03600
C827        C  0.60323907  0.24329564  0.89103186    -0.12400
C828        C  0.62598605  0.26660057  0.89996229     0.18500
C829        C  0.61614323  0.28532278  0.91810366    -0.09400
C830        C  0.58377945  0.28108664  0.92682771    -0.02400
H831        H  0.61066104  0.22879382  0.87702965     0.05000
C832        C  0.65850682  0.27370558  0.88900346     0.20500
H833        H  0.57647924  0.29666511  0.94037055     0.10200
C834        C  0.65852951  0.29696332  0.87212373    -0.15800
C835        C  0.68861498  0.30627964  0.86191191     0.03200
C836        C  0.71993207  0.29196203  0.86851565    -0.11100
C837        C  0.71970720  0.26815415  0.88533907    -0.01100
C838        C  0.68933360  0.25913924  0.89562788    -0.06300
H839        H  0.63484843  0.30824612  0.86697413     0.06200
H840        H  0.74320145  0.25667947  0.89061527     0.09600
Br841      Br  0.64566241  0.31818059  0.93085239    -0.06000
Br842      Br  0.54285076  0.20443167  0.88715390    -0.02900
Br843      Br  0.68401510  0.33799468  0.83867437    -0.00100
Br844      Br  0.69082310  0.22703706  0.91867876    -0.04500
C845        C  0.59232375  0.18479134  0.61246191    -0.11900
C846        C  0.57309924  0.16199839  0.62501132     0.03600
C847        C  0.53766146  0.16250401  0.62385557    -0.12400
C848        C  0.52085673  0.18514614  0.61018331     0.18500
C849        C  0.53998098  0.20737994  0.59738218    -0.09400
C850        C  0.57537208  0.20701928  0.59854769    -0.02400
H851        H  0.52312160  0.14500911  0.63355433     0.05000
C852        C  0.48337675  0.18558439  0.60953494     0.20500
H853        H  0.58969447  0.22440757  0.58864811     0.10200
C854        C  0.46603637  0.21301281  0.61860102    -0.15800
C855        C  0.43070786  0.21527354  0.61755657     0.03200
C856        C  0.41182313  0.18926995  0.60744392    -0.11100
C857        C  0.42945717  0.16162817  0.59851180    -0.01100
C858        C  0.46486536  0.15970729  0.59944435    -0.06300
H859        H  0.48021412  0.23308668  0.62631034     0.06200
H860        H  0.41572665  0.14146888  0.59058930     0.09600
Br861      Br  0.51876304  0.23797275  0.57761121    -0.06000
Br862      Br  0.59359566  0.12801863  0.64284400    -0.02900
Br863      Br  0.41073254  0.25514616  0.62994452    -0.00100
Br864      Br  0.48707044  0.12206709  0.58595649    -0.04500
C865        C  0.09110896  0.28868969  0.83831742    -0.11900
C866        C  0.07199523  0.26787367  0.82438918     0.03600
C867        C  0.03659915  0.26720987  0.82605846    -0.12400
C868        C  0.01953292  0.28732719  0.84119492     0.18500
C869        C  0.03868176  0.30647838  0.85590682    -0.09400
C870        C  0.07405796  0.30683039  0.85445889    -0.02400
H871        H  0.02217510  0.25176770  0.81497634     0.05000
C872        C  0.98198326  0.28992025  0.84034865     0.20500
H873        H  0.08816364  0.32288805  0.86534567     0.10200
C874        C  0.96227448  0.27963997  0.85795154    -0.15800
C875        C  0.92688487  0.28336774  0.85785538     0.03200
C876        C  0.91046520  0.29703291  0.83962226    -0.11100
C877        C  0.93038782  0.30662463  0.82190547    -0.01100
C878        C  0.96562286  0.30349222  0.82219635    -0.06300
H879        H  0.97456391  0.26897990  0.87195412     0.06200
H880        H  0.91860485  0.31745745  0.80778297     0.09600
Br881      Br  0.01783599  0.33493966  0.87711449    -0.06000
Br882      Br  0.09235423  0.23976307  0.80276567    -0.02900
Br883      Br  0.90292317  0.26907286  0.88306141    -0.00100
Br884      Br  0.99023781  0.32013694  0.79778034    -0.04500
C885        C  0.43215206  0.25953671  0.91473017    -0.11900
C886        C  0.42001215  0.22945629  0.90493925     0.03600
C887        C  0.38760782  0.22874555  0.89569470    -0.12400
C888        C  0.36752248  0.25801639  0.89489257     0.18500
C889        C  0.38085260  0.28861965  0.90258851    -0.09400
C890        C  0.41272987  0.28925614  0.91210932    -0.02400
H891        H  0.37823925  0.20539975  0.88879216     0.05000
C892        C  0.33391500  0.25759200  0.88440520     0.20500
H893        H  0.42218105  0.31369292  0.91691251     0.10200
C894        C  0.30494935  0.26586392  0.89646966    -0.15800
C895        C  0.27425077  0.27369255  0.88630347     0.03200
C896        C  0.27228253  0.27277837  0.86371127    -0.11100
C897        C  0.30059186  0.26209521  0.85186719    -0.01100
C898        C  0.33119241  0.25445699  0.86198635    -0.06300
H899        H  0.30691113  0.26855999  0.91373774     0.06200
H900        H  0.29934338  0.26115435  0.83449658     0.09600
Br901      Br  0.35723215  0.33091273  0.89957675    -0.06000
Br902      Br  0.44668491  0.18888174  0.90277537    -0.02900
Br903      Br  0.23761988  0.28986975  0.90379354    -0.00100
Br904      Br  0.36936738  0.24342856  0.84422582    -0.04500
C905        C  0.27464992  0.21639154  0.66581685    -0.11900
C906        C  0.29275054  0.20667551  0.68448442     0.03600
C907        C  0.28205979  0.21798246  0.70471690    -0.12400
C908        C  0.25346546  0.23872219  0.70687788     0.18500
C909        C  0.23498965  0.24781960  0.68847358    -0.09400
C910        C  0.24555505  0.23666142  0.66821221    -0.02400
H911        H  0.29621878  0.21066770  0.71887744     0.05000
C912        C  0.24361507  0.25126084  0.72839584     0.20500
H913        H  0.23115207  0.24435326  0.65423736     0.10200
C914        C  0.25352567  0.28377933  0.73473128    -0.15800
C915        C  0.24412272  0.29688476  0.75477687     0.03200
C916        C  0.22406712  0.27727306  0.76893133    -0.11100
C917        C  0.21476909  0.24436772  0.76258210    -0.01100
C918        C  0.22435852  0.23136509  0.74254330    -0.06300
H919        H  0.26875004  0.29904347  0.72398982     0.06200
H920        H  0.19957465  0.22875544  0.77312573     0.09600
Br921      Br  0.19510350  0.27542406  0.69036848    -0.06000
Br922      Br  0.33173321  0.17750383  0.68389292    -0.02900
Br923      Br  0.26094618  0.34106478  0.76188865    -0.00100
Br924      Br  0.21007140  0.18659850  0.73487128    -0.04500
C925        C  0.26828503  0.43880700  0.51799544    -0.11900
C926        C  0.29588753  0.43060378  0.53176565     0.03600
C927        C  0.29824886  0.39843333  0.54105036    -0.12400
C928        C  0.27420457  0.37342200  0.53661184     0.18500
C929        C  0.24697745  0.38106780  0.52300084    -0.09400
C930        C  0.24387504  0.41337802  0.51413357    -0.02400
H931        H  0.31929244  0.39270023  0.55160918     0.05000
C932        C  0.27764949  0.33957718  0.54651416     0.20500
H933        H  0.22244223  0.41737859  0.50387318     0.10200
C934        C  0.25390878  0.32927240  0.56188899    -0.15800
C935        C  0.25664119  0.29778389  0.57201585     0.03200
C936        C  0.28396076  0.27594300  0.56690174    -0.11100
C937        C  0.30734367  0.28624723  0.55115247    -0.01100
C938        C  0.30432133  0.31763872  0.54095746    -0.06300
H939        H  0.23330864  0.34609336  0.56622790     0.06200
H940        H  0.32838925  0.26996881  0.54687035     0.09600
Br941      Br  0.21429773  0.34745809  0.51494943    -0.06000
Br942      Br  0.33214228  0.46142240  0.53836692    -0.02900
Br943      Br  0.22296117  0.28754545  0.59329269    -0.00100
Br944      Br  0.33683728  0.32923093  0.51927063    -0.04500
C945        C  0.57267809  0.74772181  0.91442511    -0.11900
C946        C  0.58364695  0.71861768  0.90292472     0.03600
C947        C  0.61546269  0.71822193  0.89304391    -0.12400
C948        C  0.63648156  0.74664128  0.89361406     0.18500
C949        C  0.62504330  0.77631205  0.90356838    -0.09400
C950        C  0.59352510  0.77677756  0.91376937    -0.02400
H951        H  0.62378785  0.69565265  0.88466346     0.05000
C952        C  0.66966322  0.74516510  0.88283947     0.20500
H953        H  0.58549110  0.80050040  0.92065854     0.10200
C954        C  0.67203795  0.75535618  0.86139939    -0.15800
C955        C  0.70232342  0.75158937  0.85005749     0.03200
C956        C  0.73078655  0.73681017  0.86015550    -0.11100
C957        C  0.72883416  0.72837972  0.88203645    -0.01100
C958        C  0.69849870  0.73252008  0.89340081    -0.06300
H959        H  0.65005485  0.76585502  0.85337943     0.06200
H960        H  0.75046741  0.71725837  0.89008958     0.09600
Br961      Br  0.65165668  0.81688857  0.90338925    -0.06000
Br962      Br  0.55654283  0.67859508  0.89940982    -0.02900
Br963      Br  0.70328645  0.76794482  0.82102219    -0.00100
Br964      Br  0.69708801  0.71996355  0.92313416    -0.04500
C965        C  0.40824353  0.80632107  0.60101171    -0.11900
C966        C  0.42777734  0.78496178  0.61433947     0.03600
C967        C  0.46308071  0.78535895  0.61273835    -0.12400
C968        C  0.47940776  0.80687041  0.59814998     0.18500
C969        C  0.45994023  0.82742244  0.58444712    -0.09400
C970        C  0.42465731  0.82687816  0.58588306    -0.02400
H971        H  0.47795402  0.76904179  0.62307194     0.05000
C972        C  0.51674902  0.80805626  0.59784477     0.20500
H973        H  0.41003925  0.84346644  0.57558220     0.10200
C974        C  0.53437991  0.79631230  0.57975869    -0.15800
C975        C  0.56982018  0.79686677  0.57912246     0.03200
C976        C  0.58812903  0.80894559  0.59703641    -0.11100
C977        C  0.57024983  0.82065217  0.61508495    -0.01100
C978        C  0.53494810  0.82053634  0.61554795    -0.06300
H979        H  0.52045875  0.78646353  0.56613686     0.06200
H980        H  0.58380573  0.83026272  0.62892198     0.09600
Br981      Br  0.48035990  0.85808315  0.56440729    -0.06000
Br982      Br  0.40802322  0.75381466  0.63442315    -0.02900
Br983      Br  0.59130632  0.77921500  0.55383275    -0.00100
Br984      Br  0.51279188  0.83880308  0.64044457    -0.04500
C985        C  0.27708038  0.09397823  0.58867345    -0.11900
C986        C  0.26049392  0.07263825  0.60352007     0.03600
C987        C  0.26134850  0.03757315  0.60066848    -0.12400
C988        C  0.27869912  0.02311825  0.58332130     0.18500
C989        C  0.29300495  0.04433166  0.56761230    -0.09400
C990        C  0.29182138  0.07952316  0.57026703    -0.02400
H991        H  0.24983400  0.02138303  0.61265276     0.05000
C992        C  0.28410707  0.98609096  0.58333065     0.20500
H993        H  0.30456389  0.09544141  0.55865250     0.10200
C994        C  0.25655601  0.96441359  0.57982963    -0.15800
C995        C  0.25967081  0.92942731  0.58300886     0.03200
C996        C  0.29089862  0.91567390  0.58979888    -0.11100
C997        C  0.31861140  0.93744507  0.59279242    -0.01100
C998        C  0.31541037  0.97232208  0.58975433    -0.06300
H999        H  0.23216557  0.97494226  0.57545193     0.06200
H1000       H  0.34271830  0.92739679  0.59815623     0.09600
Br1001     Br  0.31617545  0.02629123  0.54306565    -0.06000
Br1002     Br  0.23703904  0.08949950  0.62834875    -0.02900
Br1003     Br  0.21952693  0.90251439  0.58016643    -0.00100
Br1004     Br  0.35368327  0.00035510  0.59646560    -0.04500
C1005       C  0.28174153  0.72491116  0.57683504    -0.11900
C1006       C  0.28362786  0.69378027  0.58801883     0.03600
C1007       C  0.28043992  0.66330032  0.57681998    -0.12400
C1008       C  0.27508679  0.66301384  0.55460666     0.18500
C1009       C  0.27116072  0.69391449  0.54362728    -0.09400
C1010       C  0.27464115  0.72452010  0.55473334    -0.02400
H1011       H  0.28254629  0.63959752  0.58546242     0.05000
C1012       C  0.27364210  0.63010943  0.54333781     0.20500
H1013       H  0.27253974  0.74806398  0.54593309     0.10200
C1014       C  0.24648503  0.60819792  0.54741140    -0.15800
C1015       C  0.24462332  0.57657975  0.53736537     0.03200
C1016       C  0.27041749  0.56640188  0.52308956    -0.11100
C1017       C  0.29756339  0.58831946  0.51902477    -0.01100
C1018       C  0.29957875  0.61979509  0.52922036    -0.06300
H1019       H  0.22648763  0.61590629  0.55828894     0.06200
H1020       H  0.31755490  0.58066061  0.50812601     0.09600
Br1021     Br  0.26060968  0.69549796  0.51357421    -0.06000
Br1022     Br  0.28938670  0.69069019  0.61861316    -0.02900
Br1023     Br  0.20535836  0.54927430  0.54266609    -0.00100
Br1024     Br  0.33893395  0.64710286  0.52412801    -0.04500
C1025       C  0.19388120  0.59661833  0.84021436    -0.11900
C1026       C  0.16455415  0.58023857  0.84780834     0.03600
C1027       C  0.16422755  0.54490005  0.84971922    -0.12400
C1028       C  0.19289744  0.52563129  0.84430155     0.18500
C1029       C  0.22247040  0.54220720  0.83734607    -0.09400
C1030       C  0.22273251  0.57740261  0.83532151    -0.02400
H1031       H  0.14115191  0.53229371  0.85464117     0.05000
C1032       C  0.19019482  0.48836465  0.84305437     0.20500
H1033       H  0.24535079  0.58978858  0.82939789     0.10200
C1034       C  0.17271761  0.47421179  0.82570085    -0.15800
C1035       C  0.17178351  0.43918495  0.82255113     0.03200
C1036       C  0.18898747  0.41739343  0.83694603    -0.11100
C1037       C  0.20546430  0.43177696  0.85483318    -0.01100
C1038       C  0.20603877  0.46690161  0.85799355    -0.06300
H1039       H  0.16013302  0.49066052  0.81428469     0.06200
H1040       H  0.21831584  0.41571069  0.86633089     0.09600
Br1041     Br  0.26223695  0.51771510  0.82878912    -0.06000
Br1042     Br  0.12332022  0.60452466  0.85341183    -0.02900
Br1043     Br  0.14595980  0.42350282  0.79840469    -0.00100
Br1044     Br  0.22848958  0.48456755  0.88290368    -0.04500
C1045       C  0.91314009  0.71825315  0.84195002    -0.11900
C1046       C  0.93096950  0.74919384  0.84187116     0.03600
C1047       C  0.96652608  0.74906570  0.84159433    -0.12400
C1048       C  0.98467906  0.71848481  0.84153386     0.18500
C1049       C  0.96689589  0.68778263  0.84335429    -0.09400
C1050       C  0.93154818  0.68787830  0.84349738    -0.02400
H1051       H  0.98004982  0.77286819  0.84087192     0.05000
C1052       C  0.02194245  0.71882111  0.83874515     0.20500
H1053       H  0.91843614  0.66381967  0.84387713     0.10200
C1054       C  0.04274674  0.73073116  0.85533769    -0.15800
C1055       C  0.07818258  0.72967135  0.85352655     0.03200
C1056       C  0.09339033  0.71630103  0.83474966    -0.11100
C1057       C  0.07219063  0.70554280  0.81790181    -0.01100
C1058       C  0.03695168  0.70691899  0.81969196    -0.06300
H1059       H  0.03133374  0.74034153  0.86994227     0.06200
H1060       H  0.08300770  0.69571417  0.80317834     0.09600
Br1061     Br  0.98968402  0.64493392  0.84529913    -0.06000
Br1062     Br  0.90831206  0.79214391  0.84276636    -0.02900
Br1063     Br  0.10374687  0.74615810  0.87752859    -0.00100
Br1064     Br  0.01037271  0.69269275  0.79548710    -0.04500
C1065       C  0.44487056  0.74410377  0.91121795    -0.11900
C1066       C  0.43599036  0.76368812  0.89303516     0.03600
C1067       C  0.40381583  0.76014327  0.88377181    -0.12400
C1068       C  0.37996478  0.73768516  0.89240891     0.18500
C1069       C  0.38859542  0.71858050  0.91066322    -0.09400
C1070       C  0.42073466  0.72178054  0.91980059    -0.02400
H1071       H  0.39739229  0.77486939  0.86967738     0.05000
C1072       C  0.34725362  0.73239481  0.88126707     0.20500
H1073       H  0.42693930  0.70637596  0.93363312     0.10200
C1074       C  0.34182836  0.70148164  0.87089658    -0.15800
C1075       C  0.31138916  0.69473415  0.86034866     0.03200
C1076       C  0.28549250  0.71959018  0.85969620    -0.11100
C1077       C  0.29089587  0.75058809  0.87026788    -0.01100
C1078       C  0.32152215  0.75712625  0.88096056    -0.06300
H1079       H  0.36140880  0.68223315  0.87122786     0.06200
H1080       H  0.27138666  0.76988616  0.87008554     0.09600
Br1081     Br  0.35708869  0.68814370  0.92393835    -0.06000
Br1082     Br  0.46550494  0.79700809  0.88070701    -0.02900
Br1083     Br  0.30671949  0.65010495  0.84839782    -0.00100
Br1084     Br  0.32681743  0.79961057  0.89546375    -0.04500
C1085       C  0.20979501  0.74288828  0.76723835    -0.11900
C1086       C  0.19832775  0.77587300  0.76220622     0.03600
C1087       C  0.20382898  0.78910262  0.74163532    -0.12400
C1088       C  0.21992616  0.76973934  0.72577646     0.18500
C1089       C  0.23054501  0.73661371  0.73057686    -0.09400
C1090       C  0.22545489  0.72350088  0.75112478    -0.02400
H1091       H  0.19559244  0.81462412  0.73798478     0.05000
C1092       C  0.22868153  0.78528846  0.70499316     0.20500
H1093       H  0.23430826  0.69812232  0.75458952     0.10200
C1094       C  0.25669911  0.80684833  0.70418060    -0.15800
C1095       C  0.26994356  0.81748368  0.68453891     0.03200
C1096       C  0.25500844  0.80633699  0.66515452    -0.11100
C1097       C  0.22521371  0.78691484  0.66609693    -0.01100
C1098       C  0.21202743  0.77633988  0.68585688    -0.06300
H1099       H  0.26924957  0.81424887  0.71892160     0.06200
H1100       H  0.21311111  0.77845308  0.65144512     0.09600
Br1101     Br  0.25335729  0.70879724  0.70980594    -0.06000
Br1102     Br  0.17351037  0.80349319  0.78212884    -0.02900
Br1103     Br  0.30869405  0.84679119  0.68558115    -0.00100
Br1104     Br  0.17224752  0.74852701  0.68604860    -0.04500
loop_ 
_geom_bond_atom_site_label_1 
_geom_bond_atom_site_label_2 
_geom_bond_distance 
_geom_bond_site_symmetry_2 
_ccdc_geom_bond_type 
In1           O3   2.217       .  S
In1           O4   2.282       .  S
In1          O12   2.248       .  S
In1           O6   2.232       .  S
In1           O8   2.230       .  S
In1           O9   2.265       .  S
In1          O10   2.249       .  S
In1          O13   2.224       .  S
C2            O8   1.261       .  A
C2           O10   1.262       .  A
C2         C1025   1.471       .  S
O3           C11   1.256       .  A
O4           C11   1.266       .  A
C5           O12   1.262       .  A
C5            O6   1.261       .  A
C5         C1085   1.480       .  S
C7            O9   1.266       .  A
C7           O13   1.260       .  A
C7         C1056   1.490       .  S
C11        C1076   1.486       .  S
In14         O16   2.217       .  S
In14         O17   2.263       .  S
In14         O25   2.262       .  S
In14         O19   2.222       .  S
In14         O21   2.228       .  S
In14         O22   2.264       .  S
In14         O23   2.239       .  S
In14         O26   2.229       .  S
C15          O21   1.260       .  A
C15          O23   1.263       .  A
C15         C965   1.473       .  S
O16          C24   1.257       .  A
O17          C24   1.265       .  A
C18          O25   1.262       .  A
C18          O19   1.257       .  A
C18        C1096   1.479       .  S
C20          O22   1.263       .  A
C20          O26   1.258       .  A
C20         C996   1.480       .  S
C24        C1005   1.480       .  S
C27          C28   1.567       .  S
C27          C33   1.522       .  S
C27          C31   1.555       .  S
C27         C945   1.535       .  S
C28          H35   1.084       .  S
C28          C29   1.375       .  D
C29          C30   1.546       .  S
C29         C257   1.514       .  S
C30          C34   1.535       .  S
C30          C32   1.551       .  S
C30          H36   1.110       .  S
C31          H37   1.087       .  S
C31          C32   1.374       .  D
C32         C260   1.508       .  S
C33          H38   1.085       .  S
C33          C34   1.354       .  D
C34        C1065   1.490       .  S
C39          C40   1.570       .  S
C39          C45   1.524       .  S
C39          C43   1.555       .  S
C39         C925   1.537       .  S
C40          H47   1.079       .  S
C40          C41   1.375       .  D
C41          C42   1.545       .  S
C41         C295   1.507       .  S
C42          C46   1.530       .  S
C42          C44   1.550       .  S
C42          H48   1.112       .  S
C43          H49   1.087       .  S
C43          C44   1.370       .  D
C44         C298   1.512       .  S
C45          H50   1.086       .  S
C45          C46   1.353       .  D
C46        C1016   1.479       .  S
In51         O53   2.255       .  S
In51         O54   2.261       .  S
In51         O62   2.251       .  S
In51         O56   2.244       .  S
In51         O58   2.253       .  S
In51         O59   2.273       .  S
In51         O60   2.261       .  S
In51         O63   2.225       .  S
C52          O58   1.259       .  A
C52          O60   1.259       .  A
C52        C1036   1.489       .  S
O53          C61   1.257       .  A
O54          C61   1.260       .  A
C55          O62   1.265       .  A
C55          O56   1.264       .  A
C55         C916   1.489       .  S
C57          O59   1.262       .  A
C57          O63   1.257       .  A
C57         C896   1.475       .  S
C61         C865   1.485       .  S
In64         O66   2.235       .  S
In64         O67   2.272       .  S
In64         O75   2.258       .  S
In64         O69   2.241       .  S
In64         O71   2.232       .  S
In64         O72   2.251       .  S
In64         O73   2.260       .  S
In64         O76   2.257       .  S
C65          O71   1.260       .  A
C65          O73   1.263       .  A
C65         C856   1.488       .  S
O66          C74   1.255       .  A
O67          C74   1.261       .  A
C68          O75   1.263       .  A
C68          O69   1.259       .  A
C68         C905   1.487       .  S
C70          O72   1.258       .  A
C70          O76   1.258       .  A
C70         C936   1.485       .  S
C74         C985   1.480       .  S
C77          C78   1.558       .  S
C77          C83   1.520       .  S
C77          C81   1.563       .  S
C77         C885   1.535       .  S
C78          H85   1.087       .  S
C78          C79   1.375       .  D
C79          C80   1.550       .  S
C79         C181   1.515       .  S
C80          C84   1.543       .  S
C80          C82   1.550       .  S
C80          H86   1.111       .  S
C81          H87   1.085       .  S
C81          C82   1.367       .  D
C82         C184   1.509       .  S
C83          H88   1.085       .  S
C83          C84   1.358       .  D
C84         C825   1.495       .  S
In89         O91   2.271       .  S
In89         O92   2.237       .  S
In89        O100   2.259       .  S
In89         O94   2.237       .  S
In89         O96   2.243       .  S
In89         O97   2.270       .  S
In89         O98   2.243       .  S
In89        O101   2.221       .  S
C90          O96   1.262       .  A
C90          O98   1.261       .  A
C90         C785   1.473       .  S
O91          C99   1.260       .  A
O92          C99   1.256       .  A
C93         O100   1.262       .  A
C93          O94   1.259       .  A
C93         C816   1.487       .  S
C95          O97   1.263       .  A
C95         O101   1.256       .  A
C95         C956   1.477       .  S
C99        C1045   1.481       .  S
In102       O104   2.285       .  S
In102       O105   2.223       .  S
In102       O113   2.264       .  S
In102       O107   2.218       .  S
In102       O109   2.224       .  S
In102       O110   2.231       .  S
In102       O111   2.261       .  S
In102       O114   2.271       .  S
C103        O109   1.257       .  A
C103        O111   1.261       .  A
C103        C976   1.477       .  S
O104        C112   1.264       .  A
O105        C112   1.257       .  A
C106        O113   1.265       .  A
C106        O107   1.258       .  A
C106        C805   1.482       .  S
C108        O110   1.257       .  A
C108        O114   1.265       .  A
C108        C765   1.485       .  S
C112        C745   1.483       .  S
C115        C116   1.568       .  S
C115        C121   1.525       .  S
C115        C119   1.557       .  S
C115        C776   1.538       .  S
C116        H123   1.084       .  S
C116        C117   1.383       .  D
C117        C118   1.547       .  S
C117        C219   1.515       .  S
C118        C122   1.524       .  S
C118        C120   1.548       .  S
C118        H124   1.112       .  S
C119        H125   1.087       .  S
C119        C120   1.372       .  D
C120        C222   1.507       .  S
C121        H126   1.086       .  S
C121        C122   1.349       .  D
C122        C725   1.476       .  S
In127       O129   2.223       .  S
In127       O130   2.290       .  S
In127       O138   2.261       .  S
In127       O132   2.224       .  S
In127       O134   2.228       .  S
In127       O135   2.271       .  S
In127       O136   2.257       .  S
In127       O139   2.226       .  S
C128        O134   1.260       .  A
C128        O136   1.265       .  A
C128        C796   1.485       .  S
O129        C137   1.254       .  A
O130        C137   1.265       .  A
C131        O138   1.262       .  A
C131        O132   1.259       .  A
C131        C705   1.476       .  S
C133        O135   1.265       .  A
C133        O139   1.259       .  A
C133        C876   1.489       .  S
C137        C836   1.490       .  S
In140       O142   2.250       .  S
In140       O143   2.268       .  S
In140       O151   2.273       .  S
In140       O145   2.237       .  S
In140       O147   2.239       .  S
In140       O148   2.223       .  S
In140       O149   2.258       .  S
In140       O152   2.300       .  S
C141        O147   1.260       .  A
C141        O149   1.264       .  A
C141        C845   1.480       .  S
O142        C150   1.260       .  A
O143        C150   1.261       .  A
C144        O151   1.261       .  A
C144        O145   1.257       .  A
C144        C716   1.486       .  S
C146        O148   1.251       .  A
C146        O152   1.262       .  A
C146        C756   1.490       .  S
C150        C736   1.491       .  S
In153       O155   2.227       .  S
In153       O156   2.282       .  S
In153       O164   2.253       .  S
In153       O158   2.231       .  S
In153       O160   2.226       .  S
In153       O161   2.263       .  S
In153       O162   2.249       .  S
In153       O165   2.228       .  S
C154        O160   1.261       .  A
C154        O162   1.262       .  A
C154        C625   1.471       .  S
O155        C163   1.255       .  A
O156        C163   1.263       .  A
C157        O164   1.262       .  A
C157        O158   1.259       .  A
C157        C685   1.477       .  S
C159        O161   1.265       .  A
C159        O165   1.259       .  A
C159        C665   1.478       .  S
C163        C656   1.486       .  S
In166       O168   2.244       .  S
In166       O169   2.272       .  S
In166       O177   2.246       .  S
In166       O171   2.229       .  S
In166       O173   2.239       .  S
In166       O174   2.276       .  S
In166       O175   2.277       .  S
In166       O178   2.247       .  S
C167        O173   1.256       .  A
C167        O175   1.262       .  A
C167        C576   1.485       .  S
O168        C176   1.259       .  A
O169        C176   1.262       .  A
C170        O177   1.264       .  A
C170        O171   1.258       .  A
C170        C696   1.483       .  S
C172        O174   1.261       .  A
C172        O178   1.258       .  A
C172        C616   1.493       .  S
C176        C585   1.493       .  S
C179        C180   1.559   1_554  S
C179        C185   1.525       .  S
C179        C183   1.564   1_554  S
C179        C605   1.539       .  S
C180        H187   1.086       .  S
C180        C181   1.378       .  D
C181        C182   1.549       .  S
C182        C186   1.529   1_556  S
C182        C184   1.548       .  S
C182        H188   1.111       .  S
C183        H189   1.083       .  S
C183        C184   1.370       .  D
C185        H190   1.086       .  S
C185        C186   1.354       .  D
C186        C545   1.488       .  S
In191       O193   2.210       .  S
In191       O194   2.278       .  S
In191       O202   2.258       .  S
In191       O196   2.214       .  S
In191       O198   2.235       .  S
In191       O199   2.267       .  S
In191       O200   2.244       .  S
In191       O203   2.236       .  S
C192        O198   1.261       .  A
C192        O200   1.260       .  A
C192        C636   1.477       .  S
O193        C201   1.255       .  A
O194        C201   1.267       .  A
C195        O202   1.265       .  A
C195        O196   1.259       .  A
C195        C536   1.485       .  S
C197        O199   1.263       .  A
C197        O203   1.258       .  A
C197        C485   1.480       .  S
C201        C505   1.488       .  S
In204       O206   2.271       .  S
In204       O207   2.248       .  S
In204       O215   2.250       .  S
In204       O209   2.243       .  S
In204       O211   2.237       .  S
In204       O212   2.277       .  S
In204       O213   2.245       .  S
In204       O216   2.255       .  S
C205        O211   1.261       .  A
C205        O213   1.261       .  A
C205        C465   1.469       .  S
O206        C214   1.264       .  A
O207        C214   1.261       .  A
C208        O215   1.260       .  A
C208        O209   1.260       .  A
C208        C525   1.486       .  S
C210        O212   1.260       .  A
C210        O216   1.255       .  A
C210        C596   1.490       .  S
C214        C556   1.491       .  S
C217        C218   1.570       .  S
C217        C223   1.521       .  S
C217        C221   1.554       .  S
C217        C676   1.539       .  S
C218        H225   1.083       .  S
C218        C219   1.380       .  D
C219        C220   1.546       .  S
C220        C224   1.535       .  S
C220        C222   1.551       .  S
C220        H226   1.111       .  S
C221        H227   1.087       .  S
C221        C222   1.372       .  D
C223        H228   1.086       .  S
C223        C224   1.353       .  D
C224        C445   1.485       .  S
In229       O231   2.214       .  S
In229       O232   2.279       .  S
In229       O240   2.245       .  S
In229       O234   2.217       .  S
In229       O236   2.241       .  S
In229       O237   2.269       .  S
In229       O238   2.244       .  S
In229       O241   2.234       .  S
C230        O236   1.260       .  A
C230        O238   1.260       .  A
C230        C405   1.473       .  S
O231        C239   1.255       .  A
O232        C239   1.266       .  A
C233        O240   1.264       .  A
C233        O234   1.261       .  A
C233        C425   1.471       .  S
C235        O237   1.262       .  A
C235        O241   1.256       .  A
C235        C645   1.482       .  S
C239        C456   1.489       .  S
In242       O244   2.229       .  S
In242       O245   2.274       .  S
In242       O253   2.238       .  S
In242       O247   2.236       .  S
In242       O249   2.247       .  S
In242       O250   2.253       .  S
In242       O251   2.255       .  S
In242       O254   2.261       .  S
C243        O249   1.258       .  A
C243        O251   1.260       .  A
C243        C565   1.486       .  S
O244        C252   1.258       .  A
O245        C252   1.264       .  A
C246        O253   1.262       .  A
C246        O247   1.261       .  A
C246        C436   1.472       .  S
C248        O250   1.258       .  A
C248        O254   1.259       .  A
C248        C365   1.488       .  S
C252        C385   1.480       .  S
C255        C256   1.558   1_554  S
C255        C261   1.524       .  S
C255        C259   1.567   1_554  S
C255        C345   1.541       .  S
C256        H263   1.087       .  S
C256        C257   1.376       .  D
C257        C258   1.550       .  S
C258        C262   1.528   1_556  S
C258        C260   1.546       .  S
C258        H264   1.112       .  S
C259        H265   1.085       .  S
C259        C260   1.375       .  D
C261        H266   1.086       .  S
C261        C262   1.353       .  D
C262        C396   1.480       .  S
In267       O269   2.227       .  S
In267       O270   2.279       .  S
In267       O278   2.247       .  S
In267       O272   2.223       .  S
In267       O274   2.227       .  S
In267       O275   2.276       .  S
In267       O276   2.256       .  S
In267       O279   2.246       .  S
C268        O274   1.259       .  A
C268        O276   1.261       .  A
C268        C476   1.483       .  S
O269        C277   1.258       .  A
O270        C277   1.264       .  A
C271        O278   1.263       .  A
C271        O272   1.260       .  A
C271        C336   1.479       .  S
C273        O275   1.262       .  A
C273        O279   1.257       .  A
C273        C356   1.492       .  S
C277        C376   1.489       .  S
In280       O282   2.219       .  S
In280       O283   2.277       .  S
In280       O291   2.253       .  S
In280       O285   2.224       .  S
In280       O287   2.219       .  S
In280       O288   2.272       .  S
In280       O289   2.253       .  S
In280       O292   2.207       .  S
C281        O287   1.257       .  A
C281        O289   1.264       .  A
C281        C416   1.483       .  S
O282        C290   1.257       .  A
O283        C290   1.262       .  A
C284        O291   1.261       .  A
C284        O285   1.258       .  A
C284        C325   1.475       .  S
C286        O288   1.264       .  A
C286        O292   1.257       .  A
C286        C305   1.484       .  S
C290        C496   1.487       .  S
C293        C294   1.556       .  S
C293        C299   1.526       .  S
C293        C297   1.566       .  S
C293        C316   1.538       .  S
C294        H301   1.087       .  S
C294        C295   1.375       .  D
C295        C296   1.548       .  S
C296        C300   1.530       .  S
C296        C298   1.548       .  S
C296        H302   1.111       .  S
C297        H303   1.083       .  S
C297        C298   1.372       .  D
C299        H304   1.086       .  S
C299        C300   1.355       .  D
C300        C516   1.486       .  S
C305        C306   1.416       .  A
C305        C310   1.408       .  A
C306        C307   1.403       .  A
C306       Br322   1.919       .  S
C307        C308   1.403       .  A
C307        H311   1.083       .  S
C308        C312   1.473       .  S
C308        C309   1.402       .  A
C309        C310   1.392       .  A
C309       Br321   1.920       .  S
C310        H313   1.083       .  S
C312        C314   1.397       .  A
C312        C318   1.401       .  A
C314        C315   1.400       .  A
C314        H319   1.084       .  S
C315        C316   1.423       .  A
C315       Br323   1.919       .  S
C316        C317   1.415       .  A
C317        C318   1.396       .  A
C317        H320   1.076       .  S
C318       Br324   1.920       .  S
C325        C326   1.414       .  A
C325        C330   1.404       .  A
C326        C327   1.400       .  A
C326       Br342   1.921       .  S
C327        C328   1.402       .  A
C327        H331   1.084       .  S
C328        C332   1.472       .  S
C328        C329   1.404       .  A
C329        C330   1.394       .  A
C329       Br341   1.920       .  S
C330        H333   1.084       .  S
C332        C334   1.401       .  A
C332        C338   1.404       .  A
C334        C335   1.399       .  A
C334        H339   1.084       .  S
C335        C336   1.414       .  A
C335       Br343   1.920       .  S
C336        C337   1.407       .  A
C337        C338   1.395       .  A
C337        H340   1.083       .  S
C338       Br344   1.920       .  S
C345        C346   1.423       .  A
C345        C350   1.412       .  A
C346        C347   1.406       .  A
C346       Br362   1.923       .  S
C347        C348   1.402       .  A
C347        H351   1.083       .  S
C348        C352   1.486       .  S
C348        C349   1.405       .  A
C349        C350   1.397       .  A
C349       Br361   1.921       .  S
C350        H353   1.078       .  S
C352        C354   1.404       .  A
C352        C358   1.406       .  A
C354        C355   1.403       .  A
C354        H359   1.084       .  S
C355        C356   1.416       .  A
C355       Br363   1.919       .  S
C356        C357   1.410       .  A
C357        C358   1.400       .  A
C357        H360   1.083       .  S
C358       Br364   1.919       .  S
C365        C366   1.415       .  A
C365        C370   1.408       .  A
C366        C367   1.403       .  A
C366       Br382   1.920       .  S
C367        C368   1.402       .  A
C367        H371   1.083       .  S
C368        C372   1.484   1_655  S
C368        C369   1.408       .  A
C369        C370   1.399       .  A
C369       Br381   1.920       .  S
C370        H373   1.083       .  S
C372        C374   1.404       .  A
C372        C378   1.407       .  A
C374        C375   1.406       .  A
C374        H379   1.083       .  S
C375        C376   1.416       .  A
C375       Br383   1.919       .  S
C376        C377   1.407       .  A
C377        C378   1.395       .  A
C377        H380   1.083       .  S
C378       Br384   1.922       .  S
C385        C386   1.412       .  A
C385        C390   1.406       .  A
C386        C387   1.404       .  A
C386       Br402   1.918       .  S
C387        C388   1.403       .  A
C387        H391   1.083       .  S
C388        C392   1.479       .  S
C388        C389   1.405       .  A
C389        C390   1.398       .  A
C389       Br401   1.918       .  S
C390        H393   1.083       .  S
C392        C394   1.403       .  A
C392        C398   1.407       .  A
C394        C395   1.400       .  A
C394        H399   1.084       .  S
C395        C396   1.409       .  A
C395       Br403   1.919       .  S
C396        C397   1.403       .  A
C397        C398   1.402       .  A
C397        H400   1.083       .  S
C398       Br404   1.916       .  S
C405        C406   1.410       .  A
C405        C410   1.404       .  A
C406        C407   1.398       .  A
C406       Br422   1.920       .  S
C407        C408   1.401       .  A
C407        H411   1.084       .  S
C408        C412   1.474       .  S
C408        C409   1.407       .  A
C409        C410   1.398       .  A
C409       Br421   1.919       .  S
C410        H413   1.084       .  S
C412        C414   1.398       .  A
C412        C418   1.406       .  A
C414        C415   1.397       .  A
C414        H419   1.084       .  S
C415        C416   1.419       .  A
C415       Br423   1.923       .  S
C416        C417   1.407       .  A
C417        C418   1.399       .  A
C417        H420   1.083       .  S
C418       Br424   1.918       .  S
C425        C426   1.411       .  A
C425        C430   1.404       .  A
C426        C427   1.396       .  A
C426       Br442   1.922       .  S
C427        C428   1.399       .  A
C427        H431   1.084       .  S
C428        C432   1.471       .  S
C428        C429   1.406       .  A
C429        C430   1.399       .  A
C429       Br441   1.919       .  S
C430        H433   1.084       .  S
C432        C434   1.400       .  A
C432        C438   1.406       .  A
C434        C435   1.397       .  A
C434        H439   1.084       .  S
C435        C436   1.412       .  A
C435       Br443   1.921       .  S
C436        C437   1.404       .  A
C437        C438   1.397       .  A
C437        H440   1.084       .  S
C438       Br444   1.919       .  S
C445        C446   1.414       .  A
C445        C450   1.404       .  A
C446        C447   1.402       .  A
C446       Br462   1.920       .  S
C447        C448   1.401       .  A
C447        H451   1.083       .  S
C448        C452   1.477       .  S
C448        C449   1.406       .  A
C449        C450   1.398       .  A
C449       Br461   1.918       .  S
C450        H453   1.084       .  S
C452        C454   1.397       .  A
C452        C458   1.406       .  A
C454        C455   1.397       .  A
C454        H459   1.084       .  S
C455        C456   1.421       .  A
C455       Br463   1.924       .  S
C456        C457   1.408       .  A
C457        C458   1.403       .  A
C457        H460   1.083       .  S
C458       Br464   1.918       .  S
C465        C466   1.411       .  A
C465        C470   1.402       .  A
C466        C467   1.400       .  A
C466       Br482   1.921       .  S
C467        C468   1.402       .  A
C467        H471   1.083       .  S
C468        C472   1.472       .  S
C468        C469   1.406       .  A
C469        C470   1.396       .  A
C469       Br481   1.918       .  S
C470        H473   1.084       .  S
C472        C474   1.400       .  A
C472        C478   1.403       .  A
C474        C475   1.401       .  A
C474        H479   1.084       .  S
C475        C476   1.417       .  A
C475       Br483   1.920       .  S
C476        C477   1.408       .  A
C477        C478   1.395       .  A
C477        H480   1.083       .  S
C478       Br484   1.919       .  S
C485        C486   1.413       .  A
C485        C490   1.406       .  A
C486        C487   1.402       .  A
C486       Br502   1.918       .  S
C487        C488   1.401       .  A
C487        H491   1.084       .  S
C488        C492   1.477   1_545  S
C488        C489   1.406       .  A
C489        C490   1.399       .  A
C489       Br501   1.919       .  S
C490        H493   1.084       .  S
C492        C494   1.402       .  A
C492        C498   1.404       .  A
C494        C495   1.406       .  A
C494        H499   1.083       .  S
C495        C496   1.417       .  A
C495       Br503   1.919       .  S
C496        C497   1.407       .  A
C497        C498   1.393       .  A
C497        H500   1.083       .  S
C498       Br504   1.920   1_565  S
C505        C506   1.421       .  A
C505        C510   1.409       .  A
C506        C507   1.395       .  A
C506       Br522   1.924       .  S
C507        C508   1.396       .  A
C507        H511   1.084       .  S
C508        C512   1.476       .  S
C508        C509   1.406       .  A
C509        C510   1.404       .  A
C509       Br521   1.917       .  S
C510        H513   1.083       .  S
C512        C514   1.400       .  A
C512        C518   1.406       .  A
C514        C515   1.400       .  A
C514        H519   1.084       .  S
C515        C516   1.413       .  A
C515       Br523   1.914       .  S
C516        C517   1.405       .  A
C517        C518   1.399       .  A
C517        H520   1.084       .  S
C518       Br524   1.918       .  S
C525        C526   1.417       .  A
C525        C530   1.409       .  A
C526        C527   1.399       .  A
C526       Br542   1.920       .  S
C527        C528   1.399       .  A
C527        H531   1.084       .  S
C528        C532   1.474       .  S
C528        C529   1.404       .  A
C529        C530   1.398       .  A
C529       Br541   1.919       .  S
C530        H533   1.083       .  S
C532        C534   1.397       .  A
C532        C538   1.405       .  A
C534        C535   1.394       .  A
C534        H539   1.084       .  S
C535        C536   1.418       .  A
C535       Br543   1.923       .  S
C536        C537   1.409       .  A
C537        C538   1.402       .  A
C537        H540   1.083       .  S
C538       Br544   1.917       .  S
C545        C546   1.411       .  A
C545        C550   1.406       .  A
C546        C547   1.401       .  A
C546       Br562   1.919       .  S
C547        C548   1.403       .  A
C547        H551   1.084       .  S
C548        C552   1.485       .  S
C548        C549   1.408       .  A
C549        C550   1.403       .  A
C549       Br561   1.917       .  S
C550        H553   1.083       .  S
C552        C554   1.403       .  A
C552        C558   1.407       .  A
C554        C555   1.405       .  A
C554        H559   1.083       .  S
C555        C556   1.417       .  A
C555       Br563   1.919       .  S
C556        C557   1.407       .  A
C557        C558   1.400       .  A
C557        H560   1.083       .  S
C558       Br564   1.919       .  S
C565        C566   1.417       .  A
C565        C570   1.407       .  A
C566        C567   1.401       .  A
C566       Br582   1.922       .  S
C567        C568   1.401       .  A
C567        H571   1.084       .  S
C568        C572   1.481       .  S
C568        C569   1.406       .  A
C569        C570   1.400       .  A
C569       Br581   1.918       .  S
C570        H573   1.083       .  S
C572        C574   1.400       .  A
C572        C578   1.407       .  A
C574        C575   1.399       .  A
C574        H579   1.084       .  S
C575        C576   1.416       .  A
C575       Br583   1.921       .  S
C576        C577   1.407       .  A
C577        C578   1.403       .  A
C577        H580   1.083       .  S
C578       Br584   1.918       .  S
C585        C586   1.417       .  A
C585        C590   1.409       .  A
C586        C587   1.406       .  A
C586       Br602   1.919       .  S
C587        C588   1.402       .  A
C587        H591   1.083       .  S
C588        C592   1.485       .  S
C588        C589   1.406       .  A
C589        C590   1.399       .  A
C589       Br601   1.919       .  S
C590        H593   1.083       .  S
C592        C594   1.402   1_655  A
C592        C598   1.407   1_655  A
C594        C595   1.401       .  A
C594        H599   1.084   1_455  S
C595        C596   1.416       .  A
C595       Br603   1.921       .  S
C596        C597   1.408       .  A
C597        C598   1.404       .  A
C597        H600   1.083       .  S
C598       Br604   1.917       .  S
C605        C606   1.423       .  A
C605        C610   1.413       .  A
C606        C607   1.405       .  A
C606       Br622   1.923       .  S
C607        C608   1.400       .  A
C607        H611   1.083       .  S
C608        C612   1.479       .  S
C608        C609   1.401       .  A
C609        C610   1.394       .  A
C609       Br621   1.921       .  S
C610        H613   1.076       .  S
C612        C614   1.401       .  A
C612        C618   1.404       .  A
C614        C615   1.404       .  A
C614        H619   1.084       .  S
C615        C616   1.418       .  A
C615       Br623   1.919       .  S
C616        C617   1.410       .  A
C617        C618   1.399       .  A
C617        H620   1.083       .  S
C618       Br624   1.919       .  S
C625        C626   1.410       .  A
C625        C630   1.405       .  A
C626        C627   1.395       .  A
C626       Br642   1.920       .  S
C627        C628   1.399       .  A
C627        H631   1.084       .  S
C628        C632   1.472       .  S
C628        C629   1.406       .  A
C629        C630   1.400       .  A
C629       Br641   1.918       .  S
C630        H633   1.084       .  S
C632        C634   1.400       .  A
C632        C638   1.405       .  A
C634        C635   1.400       .  A
C634        H639   1.084       .  S
C635        C636   1.414       .  A
C635       Br643   1.919       .  S
C636        C637   1.405       .  A
C637        C638   1.395       .  A
C637        H640   1.084       .  S
C638       Br644   1.919       .  S
C645        C646   1.414       .  A
C645        C650   1.405       .  A
C646        C647   1.400       .  A
C646       Br662   1.921       .  S
C647        C648   1.403       .  A
C647        H651   1.083       .  S
C648        C652   1.485       .  S
C648        C649   1.410       .  A
C649        C650   1.400       .  A
C649       Br661   1.919       .  S
C650        H653   1.083       .  S
C652        C654   1.401   1_565  A
C652        C658   1.409   1_565  A
C654        C655   1.396       .  A
C654        H659   1.084   1_545  S
C655        C656   1.416       .  A
C655       Br663   1.922       .  S
C656        C657   1.407       .  A
C657        C658   1.405       .  A
C657        H660   1.083       .  S
C658       Br664   1.918       .  S
C665        C666   1.412       .  A
C665        C670   1.405       .  A
C666        C667   1.399       .  A
C666       Br682   1.921       .  S
C667        C668   1.401       .  A
C667        H671   1.084       .  S
C668        C672   1.479       .  S
C668        C669   1.408       .  A
C669        C670   1.402       .  A
C669       Br681   1.918       .  S
C670        H673   1.083       .  S
C672        C674   1.397       .  A
C672        C678   1.403       .  A
C674        C675   1.400       .  A
C674        H679   1.084       .  S
C675        C676   1.424       .  A
C675       Br683   1.924       .  S
C676        C677   1.414       .  A
C677        C678   1.401       .  A
C677        H680   1.077       .  S
C678       Br684   1.919       .  S
C685        C686   1.412       .  A
C685        C690   1.405       .  A
C686        C687   1.397       .  A
C686       Br702   1.921       .  S
C687        C688   1.403       .  A
C687        H691   1.084       .  S
C688        C692   1.481       .  S
C688        C689   1.410       .  A
C689        C690   1.399       .  A
C689       Br701   1.920       .  S
C690        H693   1.083       .  S
C692        C694   1.402       .  A
C692        C698   1.408       .  A
C694        C695   1.398       .  A
C694        H699   1.084       .  S
C695        C696   1.417       .  A
C695       Br703   1.923       .  S
C696        C697   1.406       .  A
C697        C698   1.397       .  A
C697        H700   1.083       .  S
C698       Br704   1.919       .  S
C705        C706   1.410       .  A
C705        C710   1.406       .  A
C706        C707   1.395       .  A
C706       Br722   1.922       .  S
C707        C708   1.402       .  A
C707        H711   1.084       .  S
C708        C712   1.482       .  S
C708        C709   1.409       .  A
C709        C710   1.404       .  A
C709       Br721   1.918       .  S
C710        H713   1.083       .  S
C712        C714   1.403       .  A
C712        C718   1.407       .  A
C714        C715   1.403       .  A
C714        H719   1.083       .  S
C715        C716   1.415       .  A
C715       Br723   1.919       .  S
C716        C717   1.407       .  A
C717        C718   1.397       .  A
C717        H720   1.083       .  S
C718       Br724   1.921       .  S
C725        C726   1.408       .  A
C725        C730   1.402       .  A
C726        C727   1.399       .  A
C726       Br742   1.918       .  S
C727        C728   1.402       .  A
C727        H731   1.084       .  S
C728        C732   1.479       .  S
C728        C729   1.408       .  A
C729        C730   1.401       .  A
C729       Br741   1.916       .  S
C730        H733   1.083       .  S
C732        C734   1.401       .  A
C732        C738   1.405       .  A
C734        C735   1.404       .  A
C734        H739   1.084       .  S
C735        C736   1.418       .  A
C735       Br743   1.919       .  S
C736        C737   1.408       .  A
C737        C738   1.399       .  A
C737        H740   1.083       .  S
C738       Br744   1.919       .  S
C745        C746   1.413       .  A
C745        C750   1.405       .  A
C746        C747   1.407       .  A
C746       Br762   1.917       .  S
C747        C748   1.405       .  A
C747        H751   1.083       .  S
C748        C752   1.480   1_565  S
C748        C749   1.406       .  A
C749        C750   1.395       .  A
C749       Br761   1.920       .  S
C750        H753   1.084       .  S
C752        C754   1.396       .  A
C752        C758   1.407       .  A
C754        C755   1.393       .  A
C754        H759   1.084       .  S
C755        C756   1.419       .  A
C755       Br763   1.923       .  S
C756        C757   1.410       .  A
C757        C758   1.408       .  A
C757        H760   1.083       .  S
C758       Br764   1.916       .  S
C765        C766   1.415       .  A
C765        C770   1.406       .  A
C766        C767   1.399       .  A
C766       Br782   1.922       .  S
C767        C768   1.402       .  A
C767        H771   1.084       .  S
C768        C772   1.487       .  S
C768        C769   1.411       .  A
C769        C770   1.403       .  A
C769       Br781   1.920       .  S
C770        H773   1.083       .  S
C772        C774   1.400       .  A
C772        C778   1.408       .  A
C774        C775   1.399       .  A
C774        H779   1.084       .  S
C775        C776   1.422       .  A
C775       Br783   1.925       .  S
C776        C777   1.413       .  A
C777        C778   1.404       .  A
C777        H780   1.079       .  S
C778       Br784   1.920       .  S
C785        C786   1.410       .  A
C785        C790   1.404       .  A
C786        C787   1.399       .  A
C786       Br802   1.919       .  S
C787        C788   1.402       .  A
C787        H791   1.084       .  S
C788        C792   1.475       .  S
C788        C789   1.406       .  A
C789        C790   1.398       .  A
C789       Br801   1.918       .  S
C790        H793   1.084       .  S
C792        C794   1.398       .  A
C792        C798   1.405       .  A
C794        C795   1.397       .  A
C794        H799   1.084       .  S
C795        C796   1.418       .  A
C795       Br803   1.922       .  S
C796        C797   1.408       .  A
C797        C798   1.401       .  A
C797        H800   1.083       .  S
C798       Br804   1.918       .  S
C805        C806   1.416       .  A
C805        C810   1.406       .  A
C806        C807   1.396       .  A
C806       Br822   1.923       .  S
C807        C808   1.400       .  A
C807        H811   1.084       .  S
C808        C812   1.480       .  S
C808        C809   1.408       .  A
C809        C810   1.401       .  A
C809       Br821   1.918       .  S
C810        H813   1.083       .  S
C812        C814   1.400       .  A
C812        C818   1.406       .  A
C814        C815   1.399       .  A
C814        H819   1.084       .  S
C815        C816   1.417       .  A
C815       Br823   1.922       .  S
C816        C817   1.409       .  A
C817        C818   1.401       .  A
C817        H820   1.083       .  S
C818       Br824   1.919       .  S
C825        C826   1.417       .  A
C825        C830   1.407       .  A
C826        C827   1.404       .  A
C826       Br842   1.920       .  S
C827        C828   1.402       .  A
C827        H831   1.083       .  S
C828        C832   1.481       .  S
C828        C829   1.405       .  A
C829        C830   1.399       .  A
C829       Br841   1.918       .  S
C830        H833   1.083       .  S
C832        C834   1.397       .  A
C832        C838   1.408       .  A
C834        C835   1.397       .  A
C834        H839   1.084       .  S
C835        C836   1.420       .  A
C835       Br843   1.924       .  S
C836        C837   1.409       .  A
C837        C838   1.406       .  A
C837        H840   1.083       .  S
C838       Br844   1.917       .  S
C845        C846   1.415       .  A
C845        C850   1.404       .  A
C846        C847   1.401       .  A
C846       Br862   1.921       .  S
C847        C848   1.402       .  A
C847        H851   1.084       .  S
C848        C852   1.480       .  S
C848        C849   1.407       .  A
C849        C850   1.399       .  A
C849       Br861   1.918       .  S
C850        H853   1.083       .  S
C852        C854   1.400       .  A
C852        C858   1.406       .  A
C854        C855   1.399       .  A
C854        H859   1.084       .  S
C855        C856   1.418       .  A
C855       Br863   1.922       .  S
C856        C857   1.409       .  A
C857        C858   1.401       .  A
C857        H860   1.083       .  S
C858       Br864   1.919       .  S
C865        C866   1.414       .  A
C865        C870   1.406       .  A
C866        C867   1.402       .  A
C866       Br882   1.921       .  S
C867        C868   1.404       .  A
C867        H871   1.084       .  S
C868        C872   1.487   1_455  S
C868        C869   1.409       .  A
C869        C870   1.400       .  A
C869       Br881   1.919       .  S
C870        H873   1.083       .  S
C872        C874   1.405       .  A
C872        C878   1.408       .  A
C874        C875   1.405       .  A
C874        H879   1.083       .  S
C875        C876   1.415       .  A
C875       Br883   1.919       .  S
C876        C877   1.408       .  A
C877        C878   1.397       .  A
C877        H880   1.083       .  S
C878       Br884   1.922       .  S
C885        C886   1.420       .  A
C885        C890   1.411       .  A
C886        C887   1.403       .  A
C886       Br902   1.922       .  S
C887        C888   1.402       .  A
C887        H891   1.083       .  S
C888        C892   1.479       .  S
C888        C889   1.404       .  A
C889        C890   1.392       .  A
C889       Br901   1.922       .  S
C890        H893   1.078       .  S
C892        C894   1.406       .  A
C892        C898   1.406       .  A
C894        C895   1.402       .  A
C894        H899   1.084       .  S
C895        C896   1.410       .  A
C895       Br903   1.919       .  S
C896        C897   1.403       .  A
C897        C898   1.396       .  A
C897        H900   1.084       .  S
C898       Br904   1.919       .  S
C905        C906   1.418       .  A
C905        C910   1.407       .  A
C906        C907   1.402       .  A
C906       Br922   1.922       .  S
C907        C908   1.400       .  A
C907        H911   1.084       .  S
C908        C912   1.480       .  S
C908        C909   1.406       .  A
C909        C910   1.400       .  A
C909       Br921   1.918       .  S
C910        H913   1.083       .  S
C912        C914   1.401       .  A
C912        C918   1.405       .  A
C914        C915   1.401       .  A
C914        H919   1.084       .  S
C915        C916   1.417       .  A
C915       Br923   1.921       .  S
C916        C917   1.408       .  A
C917        C918   1.401       .  A
C917        H920   1.083       .  S
C918       Br924   1.918       .  S
C925        C926   1.424       .  A
C925        C930   1.414       .  A
C926        C927   1.400       .  A
C926       Br942   1.925       .  S
C927        C928   1.399       .  A
C927        H931   1.084       .  S
C928        C932   1.479       .  S
C928        C929   1.402       .  A
C929        C930   1.397       .  A
C929       Br941   1.920       .  S
C930        H933   1.072       .  S
C932        C934   1.401       .  A
C932        C938   1.406       .  A
C934        C935   1.399       .  A
C934        H939   1.084       .  S
C935        C936   1.417       .  A
C935       Br943   1.921       .  S
C936        C937   1.408       .  A
C937        C938   1.399       .  A
C937        H940   1.083       .  S
C938       Br944   1.920       .  S
C945        C946   1.422       .  A
C945        C950   1.414       .  A
C946        C947   1.399       .  A
C946       Br962   1.924       .  S
C947        C948   1.398       .  A
C947        H951   1.084       .  S
C948        C952   1.473       .  S
C948        C949   1.400       .  A
C949        C950   1.397       .  A
C949       Br961   1.919       .  S
C950        H953   1.078       .  S
C952        C954   1.398       .  A
C952        C958   1.406       .  A
C954        C955   1.396       .  A
C954        H959   1.084       .  S
C955        C956   1.414       .  A
C955       Br963   1.921       .  S
C956        C957   1.405       .  A
C957        C958   1.400       .  A
C957        H960   1.083       .  S
C958       Br964   1.918       .  S
C965        C966   1.413       .  A
C965        C970   1.404       .  A
C966        C967   1.398       .  A
C966       Br982   1.922       .  S
C967        C968   1.402       .  A
C967        H971   1.084       .  S
C968        C972   1.475       .  S
C968        C969   1.406       .  A
C969        C970   1.396       .  A
C969       Br981   1.918       .  S
C970        H973   1.083       .  S
C972        C974   1.403       .  A
C972        C978   1.406       .  A
C974        C975   1.400       .  A
C974        H979   1.084       .  S
C975        C976   1.413       .  A
C975       Br983   1.919       .  S
C976        C977   1.405       .  A
C977        C978   1.394       .  A
C977        H980   1.084       .  S
C978       Br984   1.920       .  S
C985        C986   1.413       .  A
C985        C990   1.406       .  A
C986        C987   1.397       .  A
C986      Br1002   1.921       .  S
C987        C988   1.400       .  A
C987        H991   1.084       .  S
C988        C992   1.478   1_545  S
C988        C989   1.408       .  A
C989        C990   1.401       .  A
C989      Br1001   1.918       .  S
C990        H993   1.083       .  S
C992        C994   1.403       .  A
C992        C998   1.408       .  A
C994        C995   1.402       .  A
C994        H999   1.083       .  S
C995        C996   1.412       .  A
C995      Br1003   1.918       .  S
C996        C997   1.405       .  A
C997        C998   1.397       .  A
C997       H1000   1.084       .  S
C998      Br1004   1.921   1_565  S
C1005      C1006   1.416       .  A
C1005      C1010   1.405       .  A
C1006      C1007   1.398       .  A
C1006     Br1022   1.923       .  S
C1007      C1008   1.400       .  A
C1007      H1011   1.084       .  S
C1008      C1012   1.479       .  S
C1008      C1009   1.408       .  A
C1009      C1010   1.400       .  A
C1009     Br1021   1.919       .  S
C1010      H1013   1.083       .  S
C1012      C1014   1.402       .  A
C1012      C1018   1.409       .  A
C1014      C1015   1.399       .  A
C1014      H1019   1.084       .  S
C1015      C1016   1.410       .  A
C1015     Br1023   1.919       .  S
C1016      C1017   1.402       .  A
C1017      C1018   1.399       .  A
C1017      H1020   1.084       .  S
C1018     Br1024   1.920       .  S
C1025      C1026   1.409       .  A
C1025      C1030   1.401       .  A
C1026      C1027   1.402       .  A
C1026     Br1042   1.920       .  S
C1027      C1028   1.404       .  A
C1027      H1031   1.083       .  S
C1028      C1032   1.479       .  S
C1028      C1029   1.408       .  A
C1029      C1030   1.397       .  A
C1029     Br1041   1.918       .  S
C1030      H1033   1.084       .  S
C1032      C1034   1.399       .  A
C1032      C1038   1.406       .  A
C1034      C1035   1.399       .  A
C1034      H1039   1.084       .  S
C1035      C1036   1.416       .  A
C1035     Br1043   1.920       .  S
C1036      C1037   1.410       .  A
C1037      C1038   1.402       .  A
C1037      H1040   1.083       .  S
C1038     Br1044   1.919       .  S
C1045      C1046   1.412       .  A
C1045      C1050   1.406       .  A
C1046      C1047   1.404       .  A
C1046     Br1062   1.918       .  S
C1047      C1048   1.404       .  A
C1047      H1051   1.083       .  S
C1048      C1052   1.482   1_655  S
C1048      C1049   1.407       .  A
C1049      C1050   1.396       .  A
C1049     Br1061   1.920       .  S
C1050      H1053   1.084       .  S
C1052      C1054   1.402       .  A
C1052      C1058   1.407       .  A
C1054      C1055   1.404       .  A
C1054      H1059   1.083       .  S
C1055      C1056   1.416       .  A
C1055     Br1063   1.918       .  S
C1056      C1057   1.408       .  A
C1057      C1058   1.397       .  A
C1057      H1060   1.083       .  S
C1058     Br1064   1.922       .  S
C1065      C1066   1.416       .  A
C1065      C1070   1.405       .  A
C1066      C1067   1.403       .  A
C1066     Br1082   1.920       .  S
C1067      C1068   1.402       .  A
C1067      H1071   1.083       .  S
C1068      C1072   1.481       .  S
C1068      C1069   1.407       .  A
C1069      C1070   1.397       .  A
C1069     Br1081   1.919       .  S
C1070      H1073   1.083       .  S
C1072      C1074   1.398       .  A
C1072      C1078   1.409       .  A
C1074      C1075   1.396       .  A
C1074      H1079   1.084       .  S
C1075      C1076   1.417       .  A
C1075     Br1083   1.923       .  S
C1076      C1077   1.407       .  A
C1077      C1078   1.405       .  A
C1077      H1080   1.083       .  S
C1078     Br1084   1.918       .  S
C1085      C1086   1.415       .  A
C1085      C1090   1.405       .  A
C1086      C1087   1.401       .  A
C1086     Br1102   1.920       .  S
C1087      C1088   1.401       .  A
C1087      H1091   1.083       .  S
C1088      C1092   1.475       .  S
C1088      C1089   1.406       .  A
C1089      C1090   1.396       .  A
C1089     Br1101   1.921       .  S
C1090      H1093   1.083       .  S
C1092      C1094   1.398       .  A
C1092      C1098   1.407       .  A
C1094      C1095   1.396       .  A
C1094      H1099   1.084       .  S
C1095      C1096   1.414       .  A
C1095     Br1103   1.921       .  S
C1096      C1097   1.407       .  A
C1097      C1098   1.401       .  A
C1097      H1100   1.083       .  S
C1098     Br1104   1.919       .  S
