geometry optimzed in LAMMPS
_audit_creation_date              2020-11-30 
_audit_creation_method            'lammps2cif' 
_symmetry_space_group_name_H-M    'P1' 
_symmetry_Int_Tables_number       1 
_symmetry_cell_setting            triclinic 
loop_ 
_symmetry_equiv_pos_as_xyz 
  x,y,z 
_cell_length_a                    58.46771965 
_cell_length_b                    58.64772520560427 
_cell_length_c                    70.24119957006567 
_cell_angle_alpha                 90.49972736400493 
_cell_angle_beta                  89.35785924290826 
_cell_angle_gamma                 121.45919770811106 
loop_ 
_atom_site_label 
_atom_site_type_symbol 
_atom_site_fract_x 
_atom_site_fract_y 
_atom_site_fract_z 
_atom_site_charge 
N1          N  0.99451568  0.68165462  0.30690606    -0.26900
N2          N  0.00999077  0.70588119  0.29980064    -0.34700
C3          C  0.99780002  0.70872501  0.28465521     0.01500
C4          C  0.97354731  0.68507347  0.28208794     0.07500
C5          C  0.97216070  0.66836293  0.29642333    -0.05600
H6          H  0.00603331  0.72667269  0.27617440     0.08200
H7          H  0.95593711  0.64815416  0.29923990     0.09400
Cu8        Cu  0.04692272  0.73366894  0.31114320     0.44200
Cu9        Cu  0.00402356  0.66796568  0.33086809     0.42000
Cu10       Cu  0.06901997  0.71139565  0.35157933     0.43900
N11         N  0.08325434  0.75708656  0.32480244    -0.34300
N12         N  0.09137624  0.74890729  0.33930406    -0.28500
C13         C  0.11584042  0.76876918  0.34461323    -0.04600
C14         C  0.12346116  0.79042736  0.33288401     0.07600
C15         C  0.10234716  0.78236813  0.32050901     0.01400
H16         H  0.12723546  0.76744829  0.35612048     0.09100
H17         H  0.10098919  0.79390413  0.30912505     0.08100
N18         N  0.04121140  0.67418554  0.36255938    -0.35700
N19         N  0.01720487  0.65854508  0.35514503    -0.27900
C20         C  0.00360776  0.63634207  0.36576855    -0.03100
C21         C  0.01988758  0.63801573  0.38053461     0.05500
C22         C  0.04360035  0.66227008  0.37805377     0.03600
H23         H  0.98343763  0.62010748  0.36282837     0.08700
H24         H  0.06125436  0.67075082  0.38687733     0.07500
N25         N  0.25554532  0.94802897  0.31052784    -0.26900
N26         N  0.23156136  0.93224346  0.30313222    -0.34700
C27         C  0.22843571  0.94470312  0.28829233     0.01500
C28         C  0.25161217  0.96952392  0.28627302     0.07500
C29         C  0.26833646  0.97095813  0.30062574    -0.05600
H30         H  0.21069874  0.93616681  0.27955241     0.08200
H31         H  0.28844231  0.98731600  0.30357207     0.09400
Cu32       Cu  0.20467677  0.89433274  0.31343742     0.44200
Cu33       Cu  0.27001613  0.93746575  0.33347662     0.42000
Cu34       Cu  0.22684354  0.87173382  0.35346747     0.43900
N35         N  0.18169606  0.85722752  0.32614925    -0.34300
N36         N  0.18973426  0.84900755  0.34067164    -0.28500
C37         C  0.17019430  0.82408975  0.34538042    -0.04600
C38         C  0.14889681  0.81628801  0.33322814     0.07600
C39         C  0.15684263  0.83775187  0.32122689     0.01400
H40         H  0.17150546  0.81250218  0.35674623     0.09100
H41         H  0.14551064  0.83911648  0.30969237     0.08100
N42         N  0.26470490  0.89887684  0.36377930    -0.35700
N43         N  0.28038262  0.92297795  0.35652687    -0.27900
C44         C  0.30321438  0.93585451  0.36655379    -0.03100
C45         C  0.30186672  0.91902294  0.38077676     0.05500
C46         C  0.27719037  0.89572885  0.37858364     0.03600
H47         H  0.31952087  0.95599908  0.36367412     0.08700
H48         H  0.26875888  0.87790344  0.38721790     0.07500
N49         N  0.92402215  0.28233862  0.64465971    -0.26900
N50         N  0.89977284  0.26701536  0.63752120    -0.34700
C51         C  0.89650840  0.28008863  0.62315938     0.01500
C52         C  0.91984542  0.30483622  0.62115341     0.07500
C53         C  0.93685363  0.30553793  0.63501706    -0.05600
H54         H  0.87850384  0.27207838  0.61475710     0.08200
H55         H  0.95706884  0.32169283  0.63793548     0.09400
Cu56       Cu  0.87247901  0.22893451  0.64768258     0.44200
Cu57       Cu  0.93838988  0.27090864  0.66727160     0.42000
Cu58       Cu  0.89546450  0.20425503  0.68615550     0.43900
N59         N  0.84946798  0.19130545  0.65990085    -0.34300
N60         N  0.85792834  0.18231345  0.67368028    -0.28500
C61         C  0.83847328  0.15718372  0.67801085    -0.04600
C62         C  0.81675740  0.15001126  0.66642022     0.07600
C63         C  0.82437663  0.17211233  0.65514288     0.01400
H64         H  0.84011824  0.14501899  0.68875386     0.09100
H65         H  0.81268295  0.17405792  0.64416017     0.08100
N66         N  0.93337554  0.23118827  0.69669194    -0.35700
N67         N  0.94881243  0.25560581  0.68986516    -0.27900
C68         C  0.97176701  0.26822689  0.69975975    -0.03100
C69         C  0.97085279  0.25093945  0.71343595     0.05500
C70         C  0.94619787  0.22760652  0.71109414     0.03600
H71         H  0.98796874  0.28848201  0.69706975     0.08700
H72         H  0.93809715  0.20941429  0.71927989     0.07500
N73         N  0.65881913  0.01776384  0.64362817    -0.26900
N74         N  0.67466022  0.04184864  0.63638925    -0.34700
C75         C  0.66269478  0.04482776  0.62117779     0.01500
C76         C  0.63821907  0.02142563  0.61866377     0.07500
C77         C  0.63640044  0.00472669  0.63316412    -0.05600
H78         H  0.67145452  0.06253268  0.61239369     0.08200
H79         H  0.62014504  0.98449018  0.63584596     0.09400
Cu80       Cu  0.71249083  0.06895546  0.64677485     0.44200
Cu81       Cu  0.66884929  0.00325467  0.66688705     0.42000
Cu82       Cu  0.73649039  0.04506092  0.68436851     0.43900
N83         N  0.75018607  0.09155488  0.65878927    -0.34300
N84         N  0.75900626  0.08266843  0.67237147    -0.28500
C85         C  0.78397980  0.10203410  0.67712666    -0.04600
C86         C  0.79122100  0.12417266  0.66600642     0.07600
C87         C  0.76934871  0.11683856  0.65452238     0.01400
H88         H  0.79587348  0.10014367  0.68797404     0.09100
H89         H  0.76741751  0.12896688  0.64390143     0.08100
N90         N  0.70909412  0.00797145  0.69556688    -0.35700
N91         N  0.68424531  0.99286342  0.68939468    -0.27900
C92         C  0.67136752  0.97068709  0.70011493    -0.03100
C93         C  0.68898176  0.97194573  0.71367013     0.05500
C94         C  0.71272523  0.99581561  0.71034851     0.03600
H95         H  0.65064748  0.95498789  0.69824443     0.08700
H96         H  0.73116503  0.00401675  0.71826146     0.07500
O97         O  0.43841213  0.95661444  0.52275575    -0.72500
O98         O  0.48019814  0.94072960  0.48490608    -0.73500
O99         O  0.48689762  0.95668307  0.52364175    -0.62100
O100        O  0.43142513  0.94061364  0.48395076    -0.70500
O101        O  0.45386900  0.98324764  0.47527864    -0.70100
O102        O  0.50962788  0.99920620  0.51468942    -0.61300
O103        O  0.50241230  0.98324859  0.47592782    -0.73800
O104        O  0.46111549  0.99924999  0.51405251    -0.72600
Cu105      Cu  0.45842880  0.94716065  0.50410861     1.04600
Cu106      Cu  0.48254009  0.99272247  0.49467426     1.04300
C107        C  0.44325957  0.98044589  0.52440643     0.93700
C108        C  0.49796129  0.95954042  0.47449902     0.92800
C109        C  0.50703202  0.98046250  0.52537161     0.85000
C110        C  0.43383837  0.95942626  0.47342841     0.91200
O111        O  0.94228388  0.48040143  0.51329570    -0.72500
O112        O  0.96093854  0.43900506  0.47707682    -0.73500
O113        O  0.94320852  0.43249786  0.51569458    -0.62100
O114        O  0.96007730  0.48699236  0.47481391    -0.70500
O115        O  0.00241833  0.51007231  0.48428329    -0.70100
O116        O  0.98546112  0.45590702  0.52531759    -0.61300
O117        O  0.00320260  0.46191672  0.48671489    -0.73800
O118        O  0.98463954  0.50383481  0.52271839    -0.72600
Cu119      Cu  0.95016364  0.45889370  0.49487662     1.04600
Cu120      Cu  0.99541394  0.48373415  0.50507750     1.04300
C121        C  0.96055858  0.49870723  0.52367164     0.93700
C122        C  0.98491389  0.44383993  0.47619196     0.92800
C123        C  0.96164160  0.43571878  0.52702214     0.85000
C124        C  0.98389087  0.50722023  0.47321330     0.91200
N125        N  0.61478768  0.99878188  0.02102361    -0.26900
N126        N  0.59871037  0.00559706  0.02916066    -0.34700
C127        C  0.61038495  0.01987136  0.04498189     0.01500
C128        C  0.63494696  0.02202172  0.04693108     0.07500
C129        C  0.63708882  0.00839459  0.03151557    -0.05600
H130        H  0.60153944  0.02794069  0.05438625     0.08200
H131        H  0.65366472  0.00579547  0.02805155     0.09400
Cu132      Cu  0.56148053  0.99469827  0.01857829     0.44200
Cu133      Cu  0.60560938  0.97683704  0.99602212     0.42000
Cu134      Cu  0.54027306  0.95279756  0.97598635     0.43900
N135        N  0.52475861  0.98006306  0.00565372    -0.34300
N136        N  0.51699882  0.96473989  0.99026984    -0.28500
C137        C  0.49209933  0.95848913  0.98573855    -0.04600
C138        C  0.48385018  0.97045221  0.99889439     0.07600
C139        C  0.50502072  0.98398214  0.01130790     0.01400
H140        H  0.48087294  0.94612863  0.97375328     0.09100
H141        H  0.50602285  0.99572055  0.02359101     0.08100
N142        N  0.56780491  0.94433025  0.96437686    -0.35700
N143        N  0.59184080  0.95352897  0.97165058    -0.27900
C144        C  0.60488868  0.94454398  0.96114979    -0.03100
C145        C  0.58825631  0.92881915  0.94659444     0.05500
C146        C  0.56487321  0.92910636  0.94905171     0.03600
H147        H  0.62485640  0.94881912  0.96415634     0.08700
H148        H  0.54697881  0.91886181  0.94047396     0.07500
N149        N  0.32783004  0.94091587  0.97619520    -0.26900
N150        N  0.34347908  0.93343939  0.96824365    -0.34700
C151        C  0.33176903  0.91947667  0.95227660     0.01500
C152        C  0.30767660  0.91832347  0.95012652     0.07500
C153        C  0.30587173  0.93213768  0.96552649    -0.05600
H154        H  0.34031876  0.91109989  0.94287989     0.08200
H155        H  0.28978336  0.93555979  0.96881804     0.09400
Cu156      Cu  0.38031234  0.94386970  0.97949106     0.44200
Cu157      Cu  0.33692377  0.96277849  0.00110243     0.42000
Cu158      Cu  0.40194542  0.98770819  0.02162902     0.43900
N159        N  0.41703359  0.95913655  0.99269323    -0.34300
N160        N  0.42495744  0.97507162  0.00777365    -0.28500
C161        C  0.44989891  0.98146061  0.01235902    -0.04600
C162        C  0.45800910  0.96899992  0.99953624     0.07600
C163        C  0.43672257  0.95502523  0.98728964     0.01400
H164        H  0.46127855  0.99431788  0.02411024     0.09100
H165        H  0.43560997  0.94285077  0.97526004     0.08100
N166        N  0.37379012  0.99550284  0.03297753    -0.35700
N167        N  0.34975027  0.98572939  0.02555951    -0.27900
C168        C  0.33595072  0.99384743  0.03604682    -0.03100
C169        C  0.35211582  0.00967012  0.05073967     0.05500
C170        C  0.37600545  0.01033297  0.04838007     0.03600
H171        H  0.31577299  0.98889796  0.03296942     0.08700
H172        H  0.39368380  0.02078826  0.05715068     0.07500
N173        N  0.94988584  0.33174675  0.02079473    -0.26900
N174        N  0.94188374  0.34695587  0.02869232    -0.34700
C175        C  0.92761464  0.33497989  0.04451498     0.01500
C176        C  0.92673598  0.31112350  0.04669606     0.07500
C177        C  0.94107918  0.30970725  0.03141547    -0.05600
H178        H  0.91866641  0.34313732  0.05373054     0.08200
H179        H  0.94467051  0.29377816  0.02812568     0.09400
Cu180      Cu  0.95123488  0.38331269  0.01753296     0.44200
Cu181      Cu  0.97194762  0.34171501  0.99581014     0.42000
Cu182      Cu  0.99064191  0.40449653  0.97327066     0.43900
N183        N  0.96370716  0.41913858  0.00404147    -0.34300
N184        N  0.97788328  0.42699494  0.98804381    -0.28500
C185        C  0.98272531  0.45142029  0.98355774    -0.04600
C186        C  0.97106846  0.45917469  0.99741755     0.07600
C187        C  0.95919815  0.43823601  0.01013647     0.01400
H188        H  0.99408135  0.46275402  0.97121927     0.09100
H189        H  0.94825345  0.43699282  0.02299700     0.08100
N190        N  0.00093800  0.37777753  0.96236352    -0.35700
N191        N  0.99369622  0.35483468  0.97072492    -0.27900
C192        C  0.00333773  0.34205794  0.96067427    -0.03100
C193        C  0.01752879  0.35766238  0.94523705     0.05500
C194        C  0.01562417  0.38022562  0.94670889     0.03600
H195        H  0.00058047  0.32298655  0.96460866     0.08700
H196        H  0.02441917  0.39722781  0.93723488     0.07500
N197        N  0.99763505  0.61467291  0.97807795    -0.26900
N198        N  0.00492549  0.59911322  0.96982201    -0.34700
C199        C  0.01999092  0.61155431  0.95436884     0.01500
C200        C  0.02216167  0.63611554  0.95284451     0.07500
C201        C  0.00773318  0.63742845  0.96811223    -0.05600
H202        H  0.02847168  0.60318556  0.94490311     0.08200
H203        H  0.00472199  0.65364843  0.97173262     0.09400
Cu204      Cu  0.99338100  0.56167770  0.98014552     0.44200
Cu205      Cu  0.97448664  0.60387201  0.00252115     0.42000
Cu206      Cu  0.95289238  0.53917271  0.02382701     0.43900
N207        N  0.97965326  0.52495537  0.99271322    -0.34300
N208        N  0.96517261  0.51673179  0.00856413    -0.28500
C209        C  0.95987699  0.49205301  0.01265930    -0.04600
C210        C  0.97154372  0.48446724  0.99870537     0.07600
C211        C  0.98389106  0.50578662  0.98630807     0.01400
H212        H  0.94835170  0.48050329  0.02487806     0.09100
H213        H  0.99518661  0.50734539  0.97356953     0.08100
N214        N  0.94344887  0.56633285  0.03494934    -0.35700
N215        N  0.95172041  0.58981835  0.02707358    -0.27900
C216        C  0.94236938  0.60272438  0.03724964    -0.03100
C217        C  0.92729759  0.58664497  0.05224016     0.05500
C218        C  0.92835928  0.56366380  0.05040198     0.03600
H219        H  0.94598010  0.62226092  0.03372863     0.08700
H220        H  0.91879502  0.54626614  0.05950197     0.07500
N221        N  0.99649814  0.27981761  0.31029292    -0.26900
N222        N  0.01238180  0.27346214  0.30128522    -0.34700
C223        C  0.99980188  0.25904675  0.28567480     0.01500
C224        C  0.97487068  0.25637844  0.28486989     0.07500
C225        C  0.97349630  0.26982654  0.30065432    -0.05600
H226        H  0.00820773  0.25116238  0.27569590     0.08200
H227        H  0.95691132  0.27197168  0.30500792     0.09400
Cu228      Cu  0.05013814  0.28469138  0.31102080     0.44200
Cu229      Cu  0.00622292  0.30113679  0.33551459     0.42000
Cu230      Cu  0.07106073  0.32411015  0.35525465     0.43900
N231        N  0.08643604  0.29798941  0.32430340    -0.34300
N232        N  0.09422181  0.31238012  0.34014972    -0.28500
C233        C  0.11875088  0.31741170  0.34472538    -0.04600
C234        C  0.12663930  0.30554577  0.33115806     0.07600
C235        C  0.10567311  0.29342524  0.31845936     0.01400
H236        H  0.12991109  0.32872546  0.35708308     0.09100
H237        H  0.10443067  0.28210027  0.30586106     0.08100
N238        N  0.04332734  0.33197393  0.36777019    -0.35700
N239        N  0.01938900  0.32309127  0.36043568    -0.27900
C240        C  0.00605151  0.33139165  0.37130093    -0.03100
C241        C  0.02235697  0.34639482  0.38622621     0.05500
C242        C  0.04587815  0.34634127  0.38356597     0.03600
H243        H  0.98611805  0.32721943  0.36828287     0.08700
H244        H  0.06362508  0.35622674  0.39230602     0.07500
N245        N  0.28245228  0.33137573  0.35073629    -0.26900
N246        N  0.26757231  0.33977813  0.35869226    -0.34700
C247        C  0.28053933  0.35505684  0.37389236     0.01500
C248        C  0.30467613  0.35616246  0.37556379     0.07500
C249        C  0.30521464  0.34092407  0.36063868    -0.05600
H250        H  0.27272447  0.36424932  0.38318512     0.08200
H251        H  0.32084793  0.33685592  0.35726933     0.09400
Cu252      Cu  0.22995383  0.32884630  0.34863791     0.44200
Cu253      Cu  0.27078179  0.30697742  0.32703612     0.42000
Cu254      Cu  0.20569350  0.28440212  0.30683037     0.43900
N255        N  0.19265247  0.31413850  0.33639222    -0.34300
N256        N  0.18387808  0.29822082  0.32130372    -0.28500
C257        C  0.15905794  0.29269498  0.31718253    -0.04600
C258        C  0.15190125  0.30569645  0.33029426     0.07600
C259        C  0.17364360  0.31905456  0.34226344     0.01400
H260        H  0.14712329  0.28012337  0.30549089     0.09100
H261        H  0.17561636  0.33155710  0.35431294     0.08100
N262        N  0.23223812  0.27383044  0.29591941    -0.35700
N263        N  0.25602941  0.28248197  0.30345292    -0.27900
C264        C  0.26868000  0.27261439  0.29350079    -0.03100
C265        C  0.25211667  0.25684073  0.27897677     0.05500
C266        C  0.22910401  0.25799355  0.28089916     0.03600
H267        H  0.28847181  0.27656271  0.29674608     0.08700
H268        H  0.21147401  0.24818541  0.27203723     0.07500
O269        O  0.31358561  0.11728172  0.18924511    -0.72500
O270        O  0.33126730  0.17194955  0.14858771    -0.73500
O271        O  0.31409534  0.16581197  0.18713403    -0.62100
O272        O  0.33088590  0.12330938  0.15071537    -0.70500
O273        O  0.28860683  0.10099834  0.14105271    -0.70100
O274        O  0.27165484  0.14316385  0.17782816    -0.61300
O275        O  0.28882632  0.14958153  0.13927891    -0.73800
O276        O  0.27132196  0.09451389  0.17955600    -0.72600
Cu277      Cu  0.32394818  0.14537657  0.16922532     1.04600
Cu278      Cu  0.27861915  0.12128365  0.15909580     1.04300
C279        C  0.28966704  0.09723274  0.19075040     0.93700
C280        C  0.31279749  0.16949662  0.13764117     0.92800
C281        C  0.29019733  0.16112009  0.18825558     0.85000
C282        C  0.31242796  0.10541299  0.14021511     0.91200
N283        N  0.61274700  0.66461999  0.35382214    -0.26900
N284        N  0.60424840  0.67949275  0.36164227    -0.34700
C285        C  0.58972511  0.66710605  0.37735466     0.01500
C286        C  0.58916713  0.64335857  0.37948450     0.07500
C287        C  0.60398563  0.64249068  0.36431351    -0.05600
H288        H  0.58038568  0.67488854  0.38653989     0.08200
H289        H  0.60806327  0.62688605  0.36104131     0.09400
Cu290      Cu  0.61358069  0.71619895  0.35057234     0.44200
Cu291      Cu  0.63561890  0.67469224  0.32913943     0.42000
Cu292      Cu  0.65741860  0.73901471  0.30863636     0.43900
N293        N  0.62811150  0.75310371  0.33761262    -0.34300
N294        N  0.64430583  0.76144011  0.32260025    -0.28500
C295        C  0.65066224  0.78635913  0.31818945    -0.04600
C296        C  0.63786140  0.79409210  0.33101061     0.07600
C297        C  0.62370020  0.77253568  0.34310345     0.01400
H298        H  0.66374912  0.79799120  0.30654857     0.09100
H299        H  0.61135799  0.77115898  0.35515314     0.08100
N300        N  0.66654876  0.71217015  0.29686737    -0.35700
N301        N  0.65809968  0.68842550  0.30432000    -0.27900
C302        C  0.66681107  0.67549779  0.29344265    -0.03100
C303        C  0.68160199  0.69192857  0.27846037     0.05500
C304        C  0.68107359  0.71507360  0.28106609     0.03600
H305        H  0.66292557  0.65571925  0.29644024     0.08700
H306        H  0.69050498  0.73269752  0.27218372     0.07500
N307        N  0.66663999  0.95045820  0.31098643    -0.26900
N308        N  0.67526963  0.93580521  0.30298827    -0.34700
C309        C  0.68947522  0.94832377  0.28722870     0.01500
C310        C  0.68959861  0.97187068  0.28524289     0.07500
C311        C  0.67492553  0.97254542  0.30054665    -0.05600
H312        H  0.69862230  0.94061618  0.27777768     0.08200
H313        H  0.67042391  0.98784146  0.30386608     0.09400
Cu314      Cu  0.66574641  0.89879728  0.31347616     0.44200
Cu315      Cu  0.64343368  0.93971686  0.33540652     0.42000
Cu316      Cu  0.61875246  0.87429142  0.35396646     0.43900
N317        N  0.64985330  0.86126866  0.32570236    -0.34300
N318        N  0.63272236  0.85245101  0.34018937    -0.28500
C319        C  0.62593893  0.82732370  0.34429720    -0.04600
C320        C  0.63936291  0.81991875  0.33180608     0.07600
C321        C  0.65435622  0.84189415  0.32021466     0.01400
H322        H  0.61212950  0.81532325  0.35551292     0.09100
H323        H  0.66746394  0.84366377  0.30858015     0.08100
N324        N  0.60887057  0.90062098  0.36567922    -0.35700
N325        N  0.61852091  0.92494215  0.35892096    -0.27900
C326        C  0.60901136  0.93748226  0.36941205    -0.03100
C327        C  0.59245571  0.92019103  0.38345102     0.05500
C328        C  0.59277925  0.89694837  0.38068183     0.03600
H329        H  0.61372213  0.95764885  0.36685306    -0.03900
H330        H  0.58220615  0.87877002  0.38894146     0.07500
O331        O  0.84316284  0.66774710  0.18035010    -0.72500
O332        O  0.78735782  0.65082681  0.14069558    -0.73500
O333        O  0.79496423  0.66870083  0.17909728    -0.62100
O334        O  0.83536352  0.64983606  0.14198132    -0.70500
O335        O  0.81247272  0.60773124  0.15187850    -0.70100
O336        O  0.77224775  0.62656397  0.18892002    -0.61300
O337        O  0.76446808  0.60872566  0.15057950    -0.73800
O338        O  0.82031269  0.62558629  0.19010233    -0.72600
Cu339      Cu  0.81602631  0.66076824  0.16019673     1.04600
Cu340      Cu  0.79154550  0.61569564  0.17072085     1.04300
C341        C  0.84066439  0.64931122  0.19134339     0.93700
C342        C  0.76713029  0.62703937  0.13938833     0.92800
C343        C  0.77711335  0.65046322  0.18981511     0.85000
C344        C  0.83037353  0.62588619  0.14115219     0.91200
O345        O  0.83522645  0.16182645  0.14260001    -0.72500
O346        O  0.79263704  0.10365795  0.18044283    -0.73500
O347        O  0.78599450  0.11251461  0.14197016    -0.62100
O348        O  0.84214485  0.15296298  0.18108734    -0.70500
O349        O  0.82125261  0.17363073  0.19072895    -0.70100
O350        O  0.76455286  0.13275174  0.15132084    -0.61300
O351        O  0.77160936  0.12421921  0.19000744    -0.73800
O352        O  0.81420995  0.18247228  0.15198357    -0.72600
Cu353      Cu  0.81474300  0.13205979  0.16121824     1.04600
Cu354      Cu  0.79216259  0.15403469  0.17133366     1.04300
C355        C  0.83132484  0.18123471  0.14124837     0.93700
C356        C  0.77543027  0.10472873  0.19116318     0.92800
C357        C  0.76640390  0.11616156  0.14047200     0.85000
C358        C  0.84057253  0.16949015  0.19212796     0.91200
N359        N  0.32903325  0.34918894  0.97531336    -0.26900
N360        N  0.34332378  0.37411772  0.96922957    -0.34700
C361        C  0.33080514  0.37701682  0.95434490     0.01500
C362        C  0.30753532  0.35271660  0.95094950     0.07500
C363        C  0.30702639  0.33555519  0.96453518    -0.05600
H364        H  0.33820130  0.39542538  0.94655078     0.08200
H365        H  0.29192905  0.31465786  0.96642583     0.09400
Cu366      Cu  0.37954062  0.40264956  0.98112565     0.44200
Cu367      Cu  0.34016021  0.33469255  0.99777015     0.42000
Cu368      Cu  0.40312638  0.38033005  0.02053174     0.43900
N369        N  0.41615130  0.42644917  0.99436625    -0.34300
N370        N  0.42482708  0.41834625  0.00857843    -0.28500
C371        C  0.44963930  0.43818702  0.01329994    -0.04600
C372        C  0.45689158  0.45973453  0.00149559     0.07600
C373        C  0.43518007  0.45161805  0.98969500     0.01400
H374        H  0.46165722  0.43683032  0.02431356     0.09100
H375        H  0.43350815  0.46291822  0.97827809     0.08100
N376        N  0.37725948  0.34114994  0.02951834    -0.35700
N377        N  0.35415867  0.32471266  0.02115337    -0.27900
C378        C  0.34145556  0.30140452  0.03058574    -0.03100
C379        C  0.35732794  0.30312183  0.04560059     0.05500
C380        C  0.37995252  0.32855436  0.04448384     0.03600
H381        H  0.32198876  0.28455729  0.02681840     0.08700
H382        H  0.39681204  0.33747525  0.05408076     0.07500
N383        N  0.59148389  0.61390926  0.97413100    -0.26900
N384        N  0.56672229  0.59912368  0.96776077    -0.34700
C385        C  0.56357867  0.61178019  0.95307499     0.01500
C386        C  0.58753833  0.63566282  0.95015489     0.07500
C387        C  0.60477081  0.63635445  0.96375695    -0.05600
H388        H  0.54520460  0.60415488  0.94517006     0.08200
H389        H  0.62544156  0.65194522  0.96600716     0.09400
Cu390      Cu  0.53875629  0.56238333  0.97939735     0.44200
Cu391      Cu  0.60615294  0.60300017  0.99655809     0.42000
Cu392      Cu  0.56339287  0.53820056  0.01728724     0.43900
N393        N  0.51580931  0.52572293  0.99287387    -0.34300
N394        N  0.52484298  0.51695126  0.00641383    -0.28500
C395        C  0.50517676  0.49237944  0.01171023    -0.04600
C396        C  0.48273327  0.48529440  0.00098079     0.07600
C397        C  0.49015141  0.50689382  0.98919681     0.01400
H398        H  0.50722908  0.48044810  0.02243191     0.09100
H399        H  0.47795268  0.50870247  0.97856051     0.08100
N400        N  0.60184324  0.56504377  0.02683873    -0.35700
N401        N  0.61721808  0.58899543  0.01930817    -0.27900
C402        C  0.64017234  0.60235920  0.02910348    -0.03100
C403        C  0.63928450  0.58601623  0.04349782     0.05500
C404        C  0.61472583  0.56245456  0.04164014     0.03600
H405        H  0.65613462  0.62261144  0.02607288     0.08700
H406        H  0.60650229  0.54498922  0.05063540     0.07500
N407        N  0.94718268  0.66597100  0.68591113    -0.26900
N408        N  0.93116546  0.67221246  0.69484000    -0.34700
C409        C  0.94328672  0.68597022  0.71076299     0.01500
C410        C  0.96801656  0.68827061  0.71185664     0.07500
C411        C  0.96982260  0.67539597  0.69588350    -0.05600
H412        H  0.93450870  0.69326697  0.72090841     0.08200
H413        H  0.98624663  0.67283065  0.69182311     0.09400
Cu414      Cu  0.89322207  0.66033958  0.68521679     0.44200
Cu415      Cu  0.93747590  0.64408611  0.66105426     0.42000
Cu416      Cu  0.87153397  0.61777269  0.64241916     0.43900
N417        N  0.85599272  0.64452788  0.67278446    -0.34300
N418        N  0.84805591  0.62917583  0.65739702    -0.28500
C419        C  0.82302224  0.62287123  0.65312764    -0.04600
C420        C  0.81492200  0.63486254  0.66642389     0.07600
C421        C  0.83628507  0.64836178  0.67867685     0.01400
H422        H  0.81172301  0.61074504  0.64107855     0.09100
H423        H  0.83758970  0.66036111  0.69087705     0.08100
N424        N  0.89938906  0.60981545  0.63033358    -0.35700
N425        N  0.92378955  0.62006110  0.63721251    -0.27900
C426        C  0.93732479  0.61176001  0.62660108    -0.03100
C427        C  0.92065708  0.59534611  0.61232284     0.05500
C428        C  0.89669496  0.59447113  0.61511023     0.03600
H429        H  0.95770712  0.61704892  0.62929149     0.08700
H430        H  0.87869170  0.58358979  0.60670612     0.07500
N431        N  0.65831053  0.60603541  0.64539660    -0.26900
N432        N  0.67446102  0.59962207  0.63687218    -0.34700
C433        C  0.66262563  0.58560159  0.62095869     0.01500
C434        C  0.63789630  0.58323324  0.61939826     0.07500
C435        C  0.63584643  0.59643230  0.63512660    -0.05600
H436        H  0.67158558  0.57811363  0.61113655     0.08200
H437        H  0.61936415  0.59908972  0.63880069     0.09400
Cu438      Cu  0.71212340  0.61125153  0.64715393     0.44200
Cu439      Cu  0.66794328  0.62843225  0.67017626     0.42000
Cu440      Cu  0.73480161  0.65565609  0.68873412     0.43900
N441        N  0.74892549  0.62582005  0.66008643    -0.34300
N442        N  0.75729729  0.64197919  0.67504737    -0.28500
C443        C  0.78198350  0.64753630  0.67967596    -0.04600
C444        C  0.78942726  0.63425459  0.66703416     0.07600
C445        C  0.76800345  0.62070038  0.65482975     0.01400
H446        H  0.79366055  0.66037651  0.69134579     0.09100
H447        H  0.76637490  0.60809181  0.64294395     0.08100
N448        N  0.70721653  0.66466418  0.69998074    -0.35700
N449        N  0.68264839  0.65410761  0.69330407    -0.27900
C450        C  0.66973895  0.66376481  0.70324002    -0.03100
C451        C  0.68696358  0.68140322  0.71682243     0.05500
C452        C  0.71058019  0.68147735  0.71437939     0.03600
H453        H  0.64941623  0.65862509  0.70050316     0.08700
H454        H  0.72890854  0.69300644  0.72235505     0.07500
O455        O  0.65215431  0.78868851  0.85713446    -0.72500
O456        O  0.66889494  0.84463807  0.81789589    -0.73500
O457        O  0.65236754  0.83700596  0.85655665    -0.62100
O458        O  0.66881138  0.79603946  0.81829581    -0.70500
O459        O  0.62632197  0.77382501  0.80912870    -0.70100
O460        O  0.60975064  0.81457038  0.84764550    -0.61300
O461        O  0.62623315  0.82216428  0.80905770    -0.73800
O462        O  0.60964116  0.76607230  0.84795634    -0.72600
Cu463      Cu  0.66205666  0.81734051  0.83777140     1.04600
Cu464      Cu  0.61649958  0.79335029  0.82813290     1.04300
C465        C  0.62824613  0.76868294  0.85880140     0.93700
C466        C  0.65006061  0.84229349  0.80742411     0.92800
C467        C  0.62848684  0.83230261  0.85806643     0.85000
C468        C  0.65023244  0.77857516  0.80762548     0.91200
N469        N  0.27088222  0.99128148  0.68409830    -0.26900
N470        N  0.26458647  0.00741189  0.69270499    -0.34700
C471        C  0.25124895  0.99590285  0.70893911     0.01500
C472        C  0.24933687  0.97147798  0.71062685     0.07500
C473        C  0.26193139  0.96916618  0.69462096    -0.05600
H474        H  0.24422428  0.00501716  0.71900275     0.08200
H475        H  0.26486652  0.95289943  0.69099985     0.09400
Cu476      Cu  0.27659712  0.04510862  0.68257956     0.44200
Cu477      Cu  0.29309364  0.00091874  0.65928665     0.42000
Cu478      Cu  0.32163340  0.06800186  0.64135430     0.43900
N479        N  0.29265150  0.08244905  0.67032269    -0.34300
N480        N  0.30900588  0.09079590  0.65540417    -0.28500
C481        C  0.31547137  0.11576147  0.65104902    -0.04600
C482        C  0.30260078  0.12345206  0.66385590     0.07600
C483        C  0.28834524  0.10189728  0.67588200     0.01400
H484        H  0.32852022  0.12737837  0.63938850     0.09100
H485        H  0.27565458  0.10034768  0.68774565     0.08100
N486        N  0.32971876  0.04030875  0.62975050    -0.35700
N487        N  0.31878356  0.01564946  0.63621260    -0.27900
C488        C  0.32804083  0.00266731  0.62598420    -0.03100
C489        C  0.34574180  0.01999716  0.61244086     0.05500
C490        C  0.34635228  0.04371004  0.61519475     0.03600
H491        H  0.32259116  0.98226303  0.62851989     0.08700
H492        H  0.35814009  0.06212689  0.60734993     0.07500
N493        N  0.33303337  0.28018214  0.64347488    -0.26900
N494        N  0.33985869  0.26444562  0.63487871    -0.34700
C495        C  0.35483294  0.27703298  0.61940401     0.01500
C496        C  0.35744143  0.30184175  0.61825417     0.07500
C497        C  0.34340830  0.30316231  0.63376450    -0.05600
H498        H  0.36284475  0.26855450  0.60961072     0.08200
H499        H  0.34060172  0.31944244  0.63762401     0.09400
Cu500      Cu  0.32763994  0.22644433  0.64460757     0.44200
Cu501      Cu  0.30927472  0.26948217  0.66762445     0.42000
Cu502      Cu  0.28550031  0.20472418  0.68771336     0.43900
N503        N  0.31283310  0.18968509  0.65761622    -0.34300
N504        N  0.29760396  0.18184082  0.67313127    -0.28500
C505        C  0.29160111  0.15708792  0.67770258    -0.04600
C506        C  0.30366460  0.14903084  0.66447173     0.07600
C507        C  0.31694985  0.17014218  0.65195152     0.01400
H508        H  0.27941575  0.14586701  0.68980668     0.09100
H509        H  0.32873874  0.17126811  0.63961607     0.08100
N510        N  0.27633580  0.23174779  0.69915051    -0.35700
N511        N  0.28528461  0.25555018  0.69163736    -0.27900
C512        C  0.27628647  0.26860874  0.70204235    -0.03100
C513        C  0.26085697  0.25224950  0.71684141     0.05500
C514        C  0.26124977  0.22897480  0.71459699     0.03600
H515        H  0.28062420  0.28852809  0.69895749     0.08700
H516        H  0.25145615  0.21140558  0.72352389     0.07500
O517        O  0.14829096  0.27227433  0.81882735    -0.72500
O518        O  0.10674652  0.28980812  0.85574891    -0.73500
O519        O  0.10025535  0.27310450  0.81689343    -0.62100
O520        O  0.15457940  0.28885399  0.85743854    -0.70500
O521        O  0.17792512  0.33123893  0.84819859    -0.70100
O522        O  0.12353805  0.31547505  0.80764236    -0.61300
O523        O  0.12987645  0.33215617  0.84640957    -0.73800
O524        O  0.17151646  0.31467109  0.80958715    -0.72600
Cu525      Cu  0.12661545  0.27952468  0.83753588     1.04600
Cu526      Cu  0.15151124  0.32487422  0.82764778     1.04300
C527        C  0.16648509  0.29073916  0.80843158     0.93700
C528        C  0.11193717  0.31380128  0.85700941     0.92800
C529        C  0.10339807  0.29170855  0.80580450     0.85000
C530        C  0.17487463  0.31253601  0.85913907     0.91200
O531        O  0.15759484  0.83305355  0.85496311    -0.72500
O532        O  0.09835616  0.79286265  0.81762928    -0.73500
O533        O  0.10788657  0.78406771  0.85559104    -0.62100
O534        O  0.14820744  0.84189603  0.81709178    -0.70500
O535        O  0.16825842  0.82085481  0.80640837    -0.70100
O536        O  0.12768059  0.76284988  0.84476975    -0.61300
O537        O  0.11854018  0.77203055  0.80677943    -0.73800
O538        O  0.17767480  0.81202759  0.84431143    -0.72600
Cu539      Cu  0.12729395  0.81369138  0.83669444     1.04600
Cu540      Cu  0.14872837  0.79117992  0.82519839     1.04300
C541        C  0.17694375  0.82889847  0.85552638     0.93700
C542        C  0.09924846  0.77627533  0.80621590     0.92800
C543        C  0.11148949  0.76440943  0.85629481     0.85000
C544        C  0.16458175  0.84046337  0.80569319     0.91200
O545        O  0.43175527  0.45989381  0.48367235    -0.72500
O546        O  0.49037294  0.50033967  0.52177602    -0.73500
O547        O  0.48084660  0.51007999  0.48407159    -0.62100
O548        O  0.44141552  0.45058019  0.52159717    -0.70500
O549        O  0.46229117  0.43055783  0.51054562    -0.70100
O550        O  0.50192031  0.49032047  0.47289697    -0.61300
O551        O  0.51158024  0.48068113  0.51066601    -0.73800
O552        O  0.45302986  0.44026336  0.47264868    -0.72600
Cu553      Cu  0.46032998  0.48087835  0.50316077     1.04600
Cu554      Cu  0.48294425  0.45975941  0.49129387     1.04300
C555        C  0.43327417  0.44379795  0.47208191     0.93700
C556        C  0.51017275  0.49683990  0.52223319     0.92800
C557        C  0.49765250  0.50958549  0.47257403     0.85000
C558        C  0.44569229  0.43135723  0.52211920     0.91200
C559        C  0.39401612  0.34203052  0.57812970     0.20800
C560        C  0.40945486  0.34893880  0.56134045    -0.39100
C561        C  0.41627980  0.37354937  0.55329237     0.19700
C562        C  0.40814111  0.38984828  0.56131611     0.22400
C563        C  0.39282682  0.38300270  0.57811448    -0.39600
C564        C  0.38615512  0.35851859  0.58619699     0.21200
N565        N  0.38492595  0.31977289  0.58854696    -0.32900
C566        C  0.37124578  0.32218266  0.60335787    -0.10400
C567        C  0.37162279  0.34611937  0.60238833    -0.29300
N568        N  0.41726135  0.41218194  0.55104852    -0.45800
C569        C  0.43151846  0.41027964  0.53644523    -0.05100
C570        C  0.43138722  0.38644220  0.53732851    -0.22500
H571        H  0.41577043  0.33616320  0.55506456     0.19300
H572        H  0.38663454  0.39584391  0.58445473     0.18100
H573        H  0.36237481  0.35341531  0.61212245     0.14400
H574        H  0.44114422  0.37958716  0.52768986     0.14300
H575        H  0.38782835  0.30394435  0.58571459     0.32400
H576        H  0.41431667  0.42797017  0.55397335     0.35200
C577        C  0.20904743  0.28900929  0.77243636     0.20800
C578        C  0.22780129  0.29892913  0.75749154    -0.39100
C579        C  0.23325920  0.28053400  0.74906312     0.19700
C580        C  0.22111251  0.25428875  0.75509543     0.22400
C581        C  0.20227780  0.24433101  0.77004235    -0.39600
C582        C  0.19670423  0.26272252  0.77843086     0.21200
N583        N  0.20006468  0.30236245  0.78249807    -0.32900
C584        C  0.18175519  0.28442693  0.79492720    -0.10400
C585        C  0.17912041  0.25948390  0.79286655    -0.29300
N586        N  0.22956606  0.24081571  0.74455074    -0.45800
C587        C  0.24707901  0.25863457  0.73166884    -0.05100
C588        C  0.24990625  0.28360265  0.73406685    -0.22500
H589        H  0.23725300  0.31939418  0.75265947     0.19300
H590        H  0.19251488  0.22375578  0.77467426     0.18100
H591        H  0.16594580  0.24140169  0.80073507     0.14400
H592        H  0.26232726  0.30156540  0.72587575     0.14300
H593        H  0.20578694  0.32234916  0.78084289     0.32400
H594        H  0.22350939  0.22070128  0.74587607     0.35200
C595        C  0.22570314  0.91797093  0.74380346     0.20800
C596        C  0.22143497  0.89389937  0.75113636    -0.39100
C597        C  0.20484888  0.88424090  0.76727306     0.19700
C598        C  0.19338982  0.89753856  0.77547569     0.22400
C599        C  0.19786191  0.92175835  0.76823790    -0.39600
C600        C  0.21447462  0.93143295  0.75208677     0.21200
N601        N  0.23974658  0.93067548  0.72812625    -0.32900
C602        C  0.23746019  0.95239234  0.72640654    -0.10400
C603        C  0.22200846  0.95367889  0.74115871    -0.29300
N604        N  0.17770242  0.88371986  0.79030856    -0.45800
C605        C  0.17927494  0.86153574  0.79154301    -0.05100
C606        C  0.19606973  0.86117294  0.77746925    -0.22500
H607        H  0.23001414  0.88324755  0.74456626     0.19300
H608        H  0.18872668  0.93205809  0.77451810     0.18100
H609        H  0.21646948  0.96847623  0.74332326     0.14400
H610        H  0.20082703  0.84587993  0.77486255     0.14300
H611        H  0.24996869  0.92471279  0.71906292     0.32400
H612        H  0.16643530  0.88892063  0.79893151     0.35200
C613        C  0.55209408  0.53552521  0.56079201     0.20800
C614        C  0.55917933  0.55148688  0.57719954    -0.39100
C615        C  0.58292724  0.55694515  0.58596087     0.19700
C616        C  0.59856017  0.54739504  0.57887860     0.22400
C617        C  0.59142492  0.53132460  0.56246622    -0.39600
C618        C  0.56753789  0.52572547  0.55374057     0.21200
N619        N  0.53008463  0.52694426  0.55021569    -0.32900
C620        C  0.53133609  0.51136703  0.53640209    -0.10400
C621        C  0.55447139  0.51018771  0.53805882    -0.29300
N622        N  0.62018042  0.55549609  0.58986164    -0.45800
C623        C  0.61817412  0.57020802  0.60405451    -0.05100
C624        C  0.59517138  0.57149964  0.60210654    -0.22500
H625        H  0.54696664  0.55892034  0.58282483     0.19300
H626        H  0.60344132  0.52357876  0.55699820     0.18100
H627        H  0.56060945  0.49907131  0.52921870     0.14400
H628        H  0.58836432  0.58180765  0.61120417     0.14300
H629        H  0.51483907  0.53097114  0.55250919     0.32400
H630        H  0.63525784  0.55118564  0.58785328     0.35200
C631        C  0.68622018  0.72445208  0.75308032     0.20800
C632        C  0.69638067  0.74335000  0.76791311    -0.39100
C633        C  0.67815041  0.74925087  0.77632729     0.19700
C634        C  0.65181872  0.73725496  0.77041522     0.22400
C635        C  0.64169384  0.71845429  0.75553224    -0.39600
C636        C  0.65991767  0.71255105  0.74713488     0.21200
N637        N  0.69930907  0.71504456  0.74302391    -0.32900
C638        C  0.68119242  0.69698946  0.73058810    -0.10400
C639        C  0.65642620  0.69498579  0.73270023    -0.29300
N640        N  0.63850358  0.74607863  0.78081626    -0.45800
C641        C  0.65648751  0.76387672  0.79343328    -0.05100
C642        C  0.68144816  0.76639722  0.79105398    -0.22500
H643        H  0.71691473  0.75264520  0.77263909     0.19300
H644        H  0.62109478  0.70898339  0.75091404     0.18100
H645        H  0.63820415  0.68218839  0.72488709     0.14400
H646        H  0.69953595  0.77902218  0.79905677     0.14300
H647        H  0.71927033  0.72047064  0.74462181     0.32400
H648        H  0.61842637  0.74036791  0.77940116     0.35200
C649        C  0.00882969  0.72458919  0.75150930     0.20800
C650        C  0.01680826  0.74129395  0.76757381    -0.39100
C651        C  0.04126104  0.74744057  0.77555131     0.19700
C652        C  0.05648156  0.73758591  0.76813482     0.22400
C653        C  0.04857418  0.72101026  0.75203971    -0.39600
C654        C  0.02422060  0.71497859  0.74402782     0.21200
N655        N  0.98663043  0.71607593  0.74114417    -0.32900
C656        C  0.98808291  0.70112612  0.72691060    -0.10400
C657        C  0.01120495  0.69994240  0.72825419    -0.29300
N658        N  0.07890880  0.74640323  0.77824005    -0.45800
C659        C  0.07802626  0.76207665  0.79213581    -0.05100
C660        C  0.05488365  0.76327040  0.79093849    -0.22500
H661        H  0.00495190  0.74904524  0.77335566     0.19300
H662        H  0.06057748  0.71350249  0.74612592     0.18100
H663        H  0.01771697  0.68961167  0.71891061     0.14400
H664        H  0.04892255  0.77430240  0.80003551     0.14300
H665        H  0.97167034  0.72047860  0.74346814     0.32400
H666        H  0.09401746  0.74223984  0.77571671     0.35200
C667        C  0.61453963  0.69282455  0.91997034     0.20800
C668        C  0.63379005  0.71819216  0.91310582    -0.39100
C669        C  0.62586254  0.72724665  0.89759445     0.19700
C670        C  0.60065016  0.71225161  0.88960754     0.22400
C671        C  0.58139112  0.68689633  0.89648908    -0.39600
C672        C  0.58935709  0.67779742  0.91195810     0.21200
N673        N  0.61716237  0.67968920  0.93450954    -0.32900
C674        C  0.59344991  0.65615095  0.93578513    -0.10400
C675        C  0.57561205  0.65422300  0.92193931    -0.29300
N676        N  0.59818590  0.72520370  0.87486384    -0.45800
C677        C  0.62207433  0.74850305  0.87339851    -0.05100
C678        C  0.63982570  0.75055824  0.88735185    -0.22500
H679        H  0.65352361  0.72993093  0.91930483     0.19300
H680        H  0.56171941  0.67508404  0.89021195     0.18100
H681        H  0.55532626  0.63784507  0.91951919     0.14400
H682        H  0.66022220  0.76682941  0.88960596     0.14300
H683        H  0.63402362  0.68643050  0.94305980     0.32400
H684        H  0.58143294  0.71847947  0.86620388     0.35200
C685        C  0.25136170  0.32499928  0.91969780     0.20800
C686        C  0.22603268  0.30574249  0.91271624    -0.39100
C687        C  0.21678232  0.31389070  0.89741497     0.19700
C688        C  0.23163512  0.33926732  0.88969970     0.22400
C689        C  0.25697958  0.35846480  0.89663592    -0.39600
C690        C  0.26620707  0.35033392  0.91192990     0.21200
N691        N  0.26434821  0.32246903  0.93440426    -0.32900
C692        C  0.28755394  0.34642123  0.93605952    -0.10400
C693        C  0.28948768  0.36426420  0.92222399    -0.29300
N694        N  0.21844503  0.34209293  0.87527721    -0.45800
C695        C  0.19507907  0.31830761  0.87371127    -0.05100
C696        C  0.19327080  0.30020013  0.88729662    -0.22500
H697        H  0.21434933  0.28594686  0.91880423     0.19300
H698        H  0.26858157  0.37832689  0.89064533     0.18100
H699        H  0.30553703  0.38477892  0.92014934     0.14400
H700        H  0.17703886  0.27976404  0.88939537     0.14300
H701        H  0.25759375  0.30561749  0.94295469     0.32400
H702        H  0.22506099  0.35906404  0.86688482     0.35200
C703        C  0.68008542  0.58904319  0.08207460     0.20800
C704        C  0.68745186  0.57944410  0.09759046    -0.39100
C705        C  0.71118081  0.59822995  0.10673257     0.19700
C706        C  0.72642332  0.62458634  0.10088899     0.22400
C707        C  0.71908605  0.63419179  0.08532279    -0.39600
C708        C  0.69534669  0.61536171  0.07615462     0.21200
N709        N  0.65829678  0.57521032  0.07114935    -0.32900
C710        C  0.65968879  0.59282426  0.05814745    -0.10400
C711        C  0.68255955  0.61807299  0.06077631    -0.29300
N712        N  0.74817540  0.63833940  0.11189600    -0.45800
C713        C  0.74676843  0.62055306  0.12478061    -0.05100
C714        C  0.72395117  0.59535532  0.12203334    -0.22500
H715        H  0.67557892  0.55885841  0.10220394     0.19300
H716        H  0.73097149  0.65477022  0.08069108     0.18100
H717        H  0.68884019  0.63605169  0.05268709     0.14400
H718        H  0.71769495  0.57731725  0.13004480     0.14300
H719        H  0.64339357  0.55505487  0.07251445     0.32400
H720        H  0.76315876  0.65848472  0.11061272     0.35200
C721        C  0.71375644  0.02642707  0.25274817     0.20800
C722        C  0.71733031  0.05017403  0.24520059    -0.39100
C723        C  0.73409723  0.06016429  0.22911985     0.19700
C724        C  0.74630911  0.04742878  0.22120585     0.22400
C725        C  0.74261078  0.02363531  0.22867468    -0.39600
C726        C  0.72588230  0.01366852  0.24473583     0.21200
N727        N  0.69930325  0.01317987  0.26818032    -0.32900
C728        C  0.70219161  0.99181291  0.26996854    -0.10400
C729        C  0.71861250  0.99142516  0.25558404    -0.29300
N730        N  0.76213661  0.06145177  0.20649015    -0.45800
C731        C  0.76007275  0.08332924  0.20503524    -0.05100
C732        C  0.74261592  0.08317533  0.21881354    -0.22500
H733        H  0.70806371  0.06031280  0.25154505     0.19300
H734        H  0.75235041  0.01381403  0.22258968     0.18100
H735        H  0.72463256  0.97698897  0.25344717     0.14400
H736        H  0.73746861  0.09821364  0.22128035     0.14300
H737        H  0.68817989  0.01844055  0.27697067     0.32400
H738        H  0.77400184  0.05670228  0.19820211     0.35200
C739        C  0.55139430  0.60178705  0.41889879     0.20800
C740        C  0.53422559  0.59343987  0.43486762    -0.39100
C741        C  0.52769444  0.56874184  0.44266146     0.19700
C742        C  0.53765439  0.55369155  0.43515744     0.22400
C743        C  0.55472991  0.56200456  0.41923756    -0.39600
C744        C  0.56113269  0.58654497  0.41142218     0.21200
N745        N  0.56028415  0.62417687  0.40862277    -0.32900
C746        C  0.57568046  0.62303063  0.39448947    -0.10400
C747        C  0.57668384  0.59986195  0.39582217    -0.29300
N748        N  0.52837092  0.53093347  0.44494233    -0.45800
C749        C  0.51223787  0.53131654  0.45875560    -0.05100
C750        C  0.51128589  0.55459497  0.45782978    -0.22500
H751        H  0.52637005  0.60516886  0.44068170     0.19300
H752        H  0.56231024  0.55011405  0.41327344     0.18100
H753        H  0.58718347  0.59345321  0.38654079     0.14400
H754        H  0.50003786  0.56030436  0.46694928     0.14300
H755        H  0.55591078  0.63911901  0.41097161     0.32400
H756        H  0.53254975  0.51591802  0.44225963     0.35200
C757        C  0.74669231  0.67843499  0.21837001     0.20800
C758        C  0.74176687  0.69809426  0.22519787    -0.39100
C759        C  0.72258974  0.68997332  0.23988714     0.19700
C760        C  0.70944718  0.66427928  0.24713946     0.22400
C761        C  0.71425653  0.64466525  0.24026686    -0.39600
C762        C  0.73335069  0.65275172  0.22564411     0.21200
N763        N  0.76417565  0.68105520  0.20468773    -0.32900
C764        C  0.76180303  0.65682154  0.20328872    -0.10400
C765        C  0.74277427  0.63868441  0.21611801    -0.29300
N766        N  0.69291655  0.66171739  0.26144438    -0.45800
C767        C  0.69548229  0.68593404  0.26343812    -0.05100
C768        C  0.71369510  0.70410156  0.25014458    -0.22500
H769        H  0.75227880  0.71824958  0.21964544     0.19300
H770        H  0.70408359  0.62463895  0.24604491     0.18100
H771        H  0.73670675  0.61800181  0.21821740     0.14400
H772        H  0.72011718  0.72495427  0.24855944     0.14300
H773        H  0.77686723  0.69819452  0.19679262     0.32400
H774        H  0.68094935  0.64457493  0.26954052     0.35200
C775        C  0.34171963  0.22550296  0.10623958     0.20800
C776        C  0.36207280  0.24967585  0.09839096    -0.39100
C777        C  0.35427710  0.25985589  0.08349458     0.19700
C778        C  0.32822410  0.24686354  0.07686283     0.22400
C779        C  0.30781160  0.22275089  0.08478440    -0.39600
C780        C  0.31560342  0.21260513  0.09972636     0.21200
N781        N  0.34402640  0.21174106  0.12049336    -0.32900
C782        C  0.31920964  0.18992556  0.12310413    -0.10400
C783        C  0.30090637  0.18976323  0.11043441    -0.29300
N784        N  0.32605375  0.26053329  0.06247603    -0.45800
C785        C  0.35086030  0.28247649  0.06001386    -0.05100
C786        C  0.36899935  0.28278192  0.07288846    -0.22500
H787        H  0.38247812  0.25980298  0.10350480     0.19300
H788        H  0.28740466  0.21262304  0.07966790     0.18100
H789        H  0.27974247  0.17496051  0.10924103     0.14400
H790        H  0.39011356  0.29765765  0.07423105     0.14300
H791        H  0.36141021  0.21690154  0.12800630     0.32400
H792        H  0.30868878  0.25533401  0.05492557     0.35200
C793        C  0.39146504  0.40488188  0.43348399     0.20800
C794        C  0.38396269  0.38821871  0.41739932    -0.39100
C795        C  0.36041533  0.38308105  0.40843937     0.19700
C796        C  0.34544847  0.39364324  0.41504216     0.22400
C797        C  0.35298065  0.41034733  0.43110526    -0.39600
C798        C  0.37657670  0.41556298  0.44003506     0.21200
N799        N  0.41325516  0.41320206  0.44427872    -0.32900
C800        C  0.41232151  0.42940770  0.45774003    -0.10400
C801        C  0.38968997  0.43131987  0.45560098    -0.29300
N802        N  0.32382294  0.38558679  0.40411003    -0.45800
C803        C  0.32503727  0.36979647  0.39043404    -0.05100
C804        C  0.34763559  0.36782229  0.39262819    -0.22500
H805        H  0.39565361  0.37996237  0.41220279     0.19300
H806        H  0.34138553  0.41874647  0.43622212     0.18100
H807        H  0.38386932  0.44299138  0.46409049     0.14400
H808        H  0.35375267  0.35653537  0.38397094     0.14300
H809        H  0.42808787  0.40849824  0.44240742     0.32400
H810        H  0.30913779  0.39048697  0.40590509     0.35200
C811        C  0.25372428  0.21567442  0.24169993     0.20800
C812        C  0.24376817  0.19691300  0.22679596    -0.39100
C813        C  0.26218894  0.19126911  0.21842414     0.19700
C814        C  0.28850954  0.20343322  0.22441153     0.22400
C815        C  0.29842214  0.22207497  0.23935703    -0.39600
C816        C  0.27999464  0.22764402  0.24774740     0.21200
N817        N  0.24033582  0.22453846  0.25197089    -0.32900
C818        C  0.25823296  0.24219713  0.26468082    -0.10400
C819        C  0.28315037  0.24459914  0.26248897    -0.29300
N820        N  0.30191230  0.19452104  0.21426673    -0.45800
C821        C  0.28396234  0.17642591  0.20179586    -0.05100
C822        C  0.25897868  0.17388721  0.20392070    -0.22500
H823        H  0.22320064  0.18737093  0.22209836     0.19300
H824        H  0.31894617  0.23149321  0.24413746     0.18100
H825        H  0.30121653  0.25715046  0.27052724     0.14400
H826        H  0.24087189  0.16089455  0.19604287     0.14300
H827        H  0.22027950  0.21883339  0.25047424     0.32400
H828        H  0.32193997  0.20015398  0.21589111     0.35200
C829        C  0.89674369  0.19630275  0.22308063     0.20800
C830        C  0.92100003  0.20048754  0.23011082    -0.39100
C831        C  0.93110115  0.21717729  0.24610288     0.19700
C832        C  0.91788281  0.22857893  0.25452451     0.22400
C833        C  0.89362764  0.22441092  0.24748148    -0.39600
C834        C  0.88364017  0.20790629  0.23138113     0.21200
N835        N  0.88311210  0.18136949  0.20801102    -0.32900
C836        C  0.86122594  0.18353600  0.20664590    -0.10400
C837        C  0.86082970  0.19996407  0.22095263    -0.29300
N838        N  0.93170209  0.24376553  0.26945739    -0.45800
C839        C  0.95397615  0.24219881  0.27047184    -0.05100
C840        C  0.95432430  0.22576383  0.25615122    -0.22500
H841        H  0.93132068  0.19155348  0.22353393     0.19300
H842        H  0.88339328  0.23347901  0.25398888     0.18100
H843        H  0.84580065  0.20516155  0.22347502     0.14400
H844        H  0.96950306  0.22083081  0.25342400     0.14300
H845        H  0.88835556  0.17033114  0.19921263     0.32400
H846        H  0.92642405  0.25479009  0.27824163     0.35200
C847        C  0.05973999  0.67617507  0.91297972     0.20800
C848        C  0.07575590  0.68313368  0.89648900    -0.39100
C849        C  0.08209306  0.70732960  0.88799356     0.19700
C850        C  0.07304540  0.72324608  0.89533277     0.22400
C851        C  0.05712059  0.71632690  0.91182375    -0.39600
C852        C  0.05088867  0.69223064  0.92034367     0.21200
N853        N  0.05082803  0.65419395  0.92367630    -0.32900
C854        C  0.03622521  0.65634216  0.93793741    -0.10400
C855        C  0.03588344  0.67983949  0.93636073    -0.29300
N856        N  0.08201315  0.74532307  0.88478711    -0.45800
C857        C  0.09703632  0.74357803  0.87069544    -0.05100
C858        C  0.09754498  0.72013748  0.87217300    -0.22500
H859        H  0.08282591  0.67069619  0.89074557     0.19300
H860        H  0.05016018  0.72882807  0.91762418     0.18100
H861        H  0.02580391  0.68681476  0.94556226     0.14400
H862        H  0.10802936  0.71353714  0.86304175     0.14300
H863        H  0.05439068  0.63870099  0.92135374     0.32400
H864        H  0.07848507  0.76083956  0.88721172     0.35200
C865        C  0.88632920  0.58884210  0.08955932     0.20800
C866        C  0.86754818  0.57920741  0.10455565    -0.39100
C867        C  0.86119937  0.59746855  0.11216641     0.19700
C868        C  0.87277456  0.62332969  0.10540191     0.22400
C869        C  0.89145845  0.63291513  0.09042101    -0.39600
C870        C  0.89769394  0.61466349  0.08278395     0.21200
N871        N  0.89557378  0.57547101  0.07972015    -0.32900
C872        C  0.91283497  0.59295696  0.06656884    -0.10400
C873        C  0.91465196  0.61757265  0.06806837    -0.29300
N874        N  0.86333746  0.63670797  0.11490333    -0.45800
C875        C  0.84550434  0.61922785  0.12776245    -0.05100
C876        C  0.84361621  0.59453454  0.12652617    -0.22500
H877        H  0.85845010  0.55898351  0.10982542     0.19300
H878        H  0.90037038  0.65306168  0.08502939     0.18100
H879        H  0.92666294  0.63523507  0.05949627     0.14400
H880        H  0.83106092  0.57685915  0.13496511     0.14300
H881        H  0.89024109  0.55565337  0.08169124     0.32400
H882        H  0.86857208  0.65645702  0.11268502     0.35200
C883        C  0.04749705  0.32988660  0.91599739     0.20800
C884        C  0.05291585  0.31035120  0.90984727    -0.39100
C885        C  0.07088552  0.31760480  0.89450852     0.19700
C886        C  0.08275748  0.34251941  0.88605763     0.22400
C887        C  0.07731813  0.36208500  0.89221749    -0.39600
C888        C  0.05912672  0.35473522  0.90748356     0.21200
N889        N  0.03112799  0.32781874  0.93029204    -0.32900
C890        C  0.03221531  0.35147717  0.93094800    -0.10400
C891        C  0.04943063  0.36880549  0.91687780    -0.29300
N892        N  0.09900938  0.34439067  0.87168676    -0.45800
C893        C  0.09726498  0.32042098  0.87090156    -0.05100
C894        C  0.07995888  0.30320091  0.88493799    -0.22500
H895        H  0.04369966  0.29088059  0.91646398     0.19300
H896        H  0.08647219  0.38152308  0.88556259     0.18100
H897        H  0.05443417  0.38902009  0.91406112     0.14400
H898        H  0.07472121  0.28290337  0.88773866     0.14300
H899        H  0.01996387  0.31125958  0.93908530     0.32400
H900        H  0.11038146  0.36085138  0.86284673     0.35200
C901        C  0.87334694  0.22357533  0.10376816     0.20800
C902        C  0.89153066  0.23148131  0.08848050    -0.39100
C903        C  0.89811499  0.25558417  0.07975829     0.19700
C904        C  0.88749692  0.27069503  0.08586517     0.22400
C905        C  0.86924171  0.26274526  0.10111263    -0.39600
C906        C  0.86256374  0.23858049  0.10978827     0.21200
N907        N  0.86371205  0.20137751  0.11429365    -0.32900
C908        C  0.84661582  0.20220209  0.12706870    -0.10400
C909        C  0.84532301  0.22509141  0.12470336    -0.29300
N910        N  0.89664354  0.29257522  0.07505047    -0.45800
C911        C  0.91304807  0.29128217  0.06187603    -0.05100
C912        C  0.91453431  0.26852351  0.06437678    -0.22500
H913        H  0.89977784  0.21964034  0.08364891     0.19300
H914        H  0.86073143  0.27441512  0.10578321     0.18100
H915        H  0.83334063  0.23099457  0.13275677     0.14400
H916        H  0.92585239  0.26215113  0.05597816     0.14300
H917        H  0.86833409  0.18647624  0.11278510     0.32400
H918        H  0.89164437  0.30720107  0.07637807     0.35200
C919        C  0.26725661  0.88129115  0.91038505     0.20800
C920        C  0.25910377  0.86396150  0.89463743    -0.39100
C921        C  0.23505250  0.85828783  0.88617430     0.19700
C922        C  0.22037743  0.86914701  0.89285869     0.22400
C923        C  0.22847273  0.88636914  0.90859637    -0.39600
C924        C  0.25240106  0.89193239  0.91708119     0.21200
N925        N  0.28909342  0.88952146  0.92114887    -0.32900
C926        C  0.28794355  0.90536763  0.93482289    -0.10400
C927        C  0.26536886  0.90735067  0.93272030    -0.29300
N928        N  0.19807795  0.86034529  0.88260484    -0.45800
C929        C  0.19843037  0.84362053  0.86936006    -0.05100
C930        C  0.22120056  0.84184647  0.87106764    -0.22500
H931        H  0.27048594  0.85535100  0.88947647     0.19300
H932        H  0.21685509  0.89462442  0.91395435     0.18100
H933        H  0.25914776  0.91843644  0.94150837     0.14400
H934        H  0.22666619  0.82989279  0.86257778     0.14300
H935        H  0.30361827  0.88438896  0.91944035     0.32400
H936        H  0.18331109  0.86509882  0.88468644     0.35200
C937        C  0.34927743  0.04957263  0.08840417     0.20800
C938        C  0.35913001  0.06876090  0.10302348    -0.39100
C939        C  0.34054828  0.07433663  0.11117008     0.19700
C940        C  0.31415460  0.06167572  0.10527044     0.22400
C941        C  0.30430511  0.04248255  0.09067156    -0.39600
C942        C  0.32291515  0.03702272  0.08246446     0.21200
N943        N  0.36302345  0.04121352  0.07805674    -0.32900
C944        C  0.34528715  0.02331712  0.06538226    -0.10400
C945        C  0.32006362  0.02015853  0.06772226    -0.29300
N946        N  0.30070352  0.07093280  0.11497062    -0.45800
C947        C  0.31869824  0.08972406  0.12706880    -0.05100
C948        C  0.34374446  0.09234797  0.12516668    -0.22500
H949        H  0.37980829  0.07885041  0.10754957     0.19300
H950        H  0.28376593  0.03278132  0.08588030     0.18100
H951        H  0.30211222  0.00746055  0.05961145     0.14400
H952        H  0.36190323  0.10584514  0.13282668     0.14300
H953        H  0.38329274  0.04762437  0.07935033     0.32400
H954        H  0.28062432  0.06507448  0.11329192     0.35200
C955        C  0.61547057  0.89931449  0.91635840     0.20800
C956        C  0.63488146  0.89395482  0.90965451    -0.39100
C957        C  0.62681474  0.87537753  0.89473261     0.19700
C958        C  0.60133132  0.86302821  0.88710118     0.22400
C959        C  0.58192872  0.86848129  0.89376282    -0.39600
C960        C  0.59002374  0.88712310  0.90868747     0.21200
N961        N  0.61807986  0.91584233  0.93062789    -0.32900
C962        C  0.59414159  0.91422308  0.93211011    -0.10400
C963        C  0.57611525  0.89655864  0.91860650    -0.29300
N964        N  0.59861269  0.84598259  0.87314903    -0.45800
C965        C  0.62256871  0.84758702  0.87185999    -0.05100
C966        C  0.64068338  0.86573766  0.88507950    -0.22500
H967        H  0.65476168  0.90345910  0.91568216     0.19300
H968        H  0.56198225  0.85882400  0.88783663     0.18100
H969        H  0.55553755  0.89105413  0.91651426     0.14400
H970        H  0.66119454  0.87110600  0.88733480     0.14300
H971        H  0.63509824  0.92733843  0.93893284     0.32400
H972        H  0.58157439  0.83409866  0.86495449     0.35200
C973        C  0.70999990  0.08549786  0.10953459     0.20800
C974        C  0.68544051  0.07978431  0.10199560    -0.39100
C975        C  0.67605293  0.06202469  0.08651591     0.19700
C976        C  0.69009759  0.05089758  0.07907823     0.22400
C977        C  0.71458014  0.05649114  0.08667821    -0.39600
C978        C  0.72392370  0.07418367  0.10218641     0.21200
N979        N  0.72334367  0.10195487  0.12411604    -0.32900
C980        C  0.74586081  0.10101415  0.12607165    -0.10400
C981        C  0.74692055  0.08388585  0.11268200    -0.29300
N982        N  0.67719359  0.03511009  0.06411813    -0.45800
C983        C  0.65473415  0.03614506  0.06204776    -0.05100
C984        C  0.65326880  0.05264967  0.07579995    -0.22500
H985        H  0.67453202  0.08862782  0.10768678     0.19300
H986        H  0.72561327  0.04784188  0.08087447     0.18100
H987        H  0.76249594  0.07929185  0.11082096     0.14400
H988        H  0.63785345  0.05747824  0.07754920     0.14300
H989        H  0.71750474  0.11311267  0.13222486     0.32400
H990        H  0.68337487  0.02440904  0.05581182     0.35200
C991        C  0.95840035  0.54302238  0.55788402     0.20800
C992        C  0.96857636  0.56351808  0.57154326    -0.39100
C993        C  0.94975095  0.56834596  0.58014478     0.19700
C994        C  0.92285044  0.55399568  0.57544383     0.22400
C995        C  0.91265509  0.53346909  0.56175438    -0.39600
C996        C  0.93149277  0.52855060  0.55318928     0.21200
N997        N  0.97212102  0.53427659  0.54795747    -0.32900
C998        C  0.95385575  0.51406609  0.53684377    -0.10400
C999        C  0.92827261  0.50990077  0.53968852    -0.29300
N1000       N  0.90903931  0.56208662  0.58601833    -0.45800
C1001       C  0.92728376  0.58156492  0.59762653    -0.05100
C1002       C  0.95289509  0.58606973  0.59431595    -0.22500
H1003       H  0.98955890  0.57466633  0.57536450     0.19300
H1004       H  0.89158956  0.52199692  0.55818645     0.18100
H1005       H  0.90981768  0.49512356  0.53289262     0.14400
H1006       H  0.97129803  0.60013671  0.60149571     0.14300
H1007       H  0.99263946  0.54154014  0.54875827     0.32400
H1008       H  0.88841910  0.55440975  0.58565484     0.35200
C1009       C  0.98664301  0.40080022  0.44057252     0.20800
C1010       C  0.97665869  0.38207413  0.42567837    -0.39100
C1011       C  0.99462772  0.37547071  0.41785084     0.19700
C1012       C  0.02057553  0.38655605  0.42437219     0.22400
C1013       C  0.03061672  0.40538849  0.43928753    -0.39600
C1014       C  0.01262839  0.41210649  0.44709279     0.21200
N1015       N  0.97357938  0.41056703  0.45016023    -0.32900
C1016       C  0.99133283  0.42835854  0.46286511    -0.10400
C1017       C  0.01595462  0.42989032  0.46139747    -0.29300
N1018       N  0.03373490  0.37727889  0.41422658    -0.45800
C1019       C  0.01603774  0.36030846  0.40109200    -0.05100
C1020       C  0.99142572  0.35864161  0.40298708    -0.22500
H1021       H  0.95643505  0.37345613  0.42044148     0.19300
H1022       H  0.05097645  0.41432659  0.44431570     0.18100
H1023       H  0.03384511  0.44236249  0.46963281     0.14400
H1024       H  0.97366380  0.34701811  0.39444816     0.14300
H1025       H  0.95382961  0.40558271  0.44807247     0.32400
H1026       H  0.05364551  0.38256823  0.41590592     0.35200
C1027       C  0.41377140  0.00782542  0.55435999     0.20800
C1028       C  0.40917785  0.02747791  0.56157561    -0.39100
C1029       C  0.38969367  0.01904962  0.57600185     0.19700
C1030       C  0.37595924  0.99308114  0.58275092     0.22400
C1031       C  0.38052156  0.97342899  0.57552745    -0.39600
C1032       C  0.39991551  0.98182402  0.56105780     0.21200
N1033       N  0.43108385  0.01068522  0.54051660    -0.32900
C1034       C  0.42812645  0.98630190  0.53835778    -0.10400
C1035       C  0.40889247  0.96777815  0.55092372    -0.29300
N1036       N  0.35855166  0.99014032  0.59651739    -0.45800
C1037       C  0.36116418  0.01439306  0.59853155    -0.05100
C1038       C  0.38038419  0.03295769  0.58596614    -0.22500
H1039       H  0.41991694  0.04778761  0.55631259     0.19300
H1040       H  0.36971693  0.95309736  0.58075080     0.18100
H1041       H  0.40232512  0.94686917  0.55239151     0.14400
H1042       H  0.38677659  0.05380245  0.58439012     0.14300
H1043       H  0.44398208  0.02808713  0.53293691     0.32400
H1044       H  0.34570640  0.97266875  0.60404159     0.35200
C1045       C  0.52845095  0.93279032  0.44485622     0.20800
C1046       C  0.53332133  0.91332943  0.43756903    -0.39100
C1047       C  0.55137243  0.92143353  0.42217620     0.19700
C1048       C  0.56358094  0.94694897  0.41468127     0.22400
C1049       C  0.55882091  0.96641114  0.42201181    -0.39600
C1050       C  0.54080882  0.95832512  0.43736915     0.21200
N1051       N  0.51170848  0.92997939  0.45914175    -0.32900
C1052       C  0.51346538  0.95390149  0.46071440    -0.10400
C1053       C  0.53150083  0.97212206  0.44744008    -0.29300
N1054       N  0.57964497  0.94964313  0.39999471    -0.45800
C1055       C  0.57775782  0.92570648  0.39809613    -0.05100
C1056       C  0.56029723  0.90755405  0.41168667    -0.22500
H1057       H  0.52362783  0.89332853  0.44335390     0.19300
H1058       H  0.56829658  0.98632572  0.41609489     0.18100
H1059       H  0.53677562  0.99256381  0.44527578     0.14400
H1060       H  0.55480192  0.88700702  0.41359425     0.14300
H1061       H  0.49970266  0.91282073  0.46722058     0.32400
H1062       H  0.59117128  0.96678131  0.39179697     0.35200
C1063       C  0.56332294  0.00787497  0.55646778     0.20800
C1064       C  0.58780765  0.02765740  0.56428214    -0.39100
C1065       C  0.59729952  0.01940341  0.57936492     0.19700
C1066       C  0.58343327  0.99345106  0.58613825     0.22400
C1067       C  0.55903816  0.97363620  0.57825261    -0.39600
C1068       C  0.54955146  0.98188250  0.56317534     0.21200
N1069       N  0.54990694  0.01069433  0.54219061    -0.32900
C1070       C  0.52747193  0.98630984  0.53976725    -0.10400
C1071       C  0.52653980  0.96780456  0.55258643    -0.29300
N1072       N  0.59631101  0.99084351  0.60087869    -0.45800
C1073       C  0.61855829  0.01530396  0.60352812    -0.05100
C1074       C  0.61994672  0.03362720  0.59031085    -0.22500
H1075       H  0.59855382  0.04801171  0.55910557     0.19300
H1076       H  0.54813797  0.95335760  0.58357401     0.18100
H1077       H  0.51108134  0.94691907  0.55399708     0.14400
H1078       H  0.63519876  0.05460101  0.58907037     0.14300
H1079       H  0.55565612  0.02812293  0.53456815     0.32400
H1080       H  0.59020107  0.97350283  0.60870852     0.35200
C1081       C  0.67682824  0.89876038  0.77665270     0.20800
C1082       C  0.69643626  0.92314610  0.76859073    -0.39100
C1083       C  0.68795669  0.93198184  0.75323575     0.19700
C1084       C  0.66195597  0.91764611  0.74649666     0.22400
C1085       C  0.64233532  0.89339537  0.75463299    -0.39600
C1086       C  0.65081033  0.88454659  0.76992754     0.21200
N1087       N  0.67992739  0.88562757  0.79099588    -0.32900
C1088       C  0.65569425  0.86292214  0.79333664    -0.10400
C1089       C  0.63700692  0.86160331  0.78053757    -0.29300
N1090       N  0.65905037  0.93001077  0.73157346    -0.45800
C1091       C  0.68336154  0.95242549  0.72877256    -0.05100
C1092       C  0.70192381  0.95438470  0.74202621    -0.22500
H1093       H  0.71683077  0.93424009  0.77373659     0.19300
H1094       H  0.62204745  0.88209141  0.74930042     0.18100
H1095       H  0.61623803  0.84578901  0.77902174     0.14400
H1096       H  0.72282095  0.96997278  0.74323950     0.14300
H1097       H  0.69745344  0.89159870  0.79858380     0.32400
H1098       H  0.64158190  0.92350985  0.72377729     0.35200
C1099       C  0.94701365  0.36194877  0.59056116     0.20800
C1100       C  0.96687302  0.38643150  0.58269795    -0.39100
C1101       C  0.95900053  0.39534789  0.56701178     0.19700
C1102       C  0.93327772  0.38103000  0.55978575     0.22400
C1103       C  0.91342030  0.35658188  0.56766709    -0.39600
C1104       C  0.92132887  0.34760251  0.58328442     0.21200
N1105       N  0.94964554  0.34878812  0.60513301    -0.32900
C1106       C  0.92551140  0.32579611  0.60709601    -0.10400
C1107       C  0.90730419  0.32441860  0.59375196    -0.29300
N1108       N  0.93093598  0.39358467  0.54468591    -0.45800
C1109       C  0.95535747  0.41604389  0.54221864    -0.05100
C1110       C  0.97339498  0.41785006  0.55589220    -0.22500
H1111       H  0.98705126  0.39755570  0.58824114     0.19300
H1112       H  0.89337701  0.34522398  0.56191419     0.18100
H1113       H  0.88671899  0.30843262  0.59175797     0.14400
H1114       H  0.99423650  0.43346017  0.55743371     0.14300
H1115       H  0.96697005  0.35489580  0.61301373     0.32400
H1116       H  0.91381725  0.38718437  0.53649331     0.35200
C1117       C  0.02804706  0.27793886  0.74381573     0.20800
C1118       C  0.05242316  0.29784636  0.75171431    -0.39100
C1119       C  0.06210629  0.28965078  0.76671724     0.19700
C1120       C  0.04859316  0.26358114  0.77325990     0.22400
C1121       C  0.02424649  0.24366385  0.76533016    -0.39600
C1122       C  0.01447436  0.25189981  0.75040783     0.21200
N1123       N  0.01435715  0.28079685  0.72976240    -0.32900
C1124       C  0.99180852  0.25645402  0.72741936    -0.10400
C1125       C  0.99118880  0.23787443  0.74003808    -0.29300
N1126       N  0.06167256  0.26100165  0.78789351    -0.45800
C1127       C  0.08362573  0.28561330  0.79076032    -0.05100
C1128       C  0.08464381  0.30401787  0.77778010    -0.22500
H1129       H  0.06289646  0.31828114  0.74670409     0.19300
H1130       H  0.01352841  0.22334086  0.77056582     0.18100
H1131       H  0.97572936  0.21701018  0.74153652     0.14400
H1132       H  0.09967366  0.32508998  0.77672027     0.14300
H1133       H  0.01990512  0.29837131  0.72240715     0.32400
H1134       H  0.05587808  0.24361856  0.79558104     0.35200
C1135       C  0.37761158  0.93206306  0.44220356     0.20800
C1136       C  0.35322361  0.91226976  0.43427068    -0.39100
C1137       C  0.34380756  0.92054635  0.41915181     0.19700
C1138       C  0.35765350  0.94652605  0.41243331     0.22400
C1139       C  0.38196512  0.96635279  0.42042825    -0.39600
C1140       C  0.39136773  0.95808728  0.43555960     0.21200
N1141       N  0.39094231  0.92922665  0.45654361    -0.32900
C1142       C  0.41333835  0.95362350  0.45905857    -0.10400
C1143       C  0.41427600  0.97216619  0.44626475    -0.29300
N1144       N  0.34458764  0.94925482  0.39786696    -0.45800
C1145       C  0.32218598  0.92486524  0.39533649    -0.05100
C1146       C  0.32099431  0.90643338  0.40835797    -0.22500
H1147       H  0.34242687  0.89191461  0.43944478     0.19300
H1148       H  0.39280893  0.98668238  0.41520336     0.18100
H1149       H  0.42972008  0.99306346  0.44490430     0.14400
H1150       H  0.30557753  0.88553424  0.40972659     0.14300
H1151       H  0.38519567  0.91176000  0.46411548     0.32400
H1152       H  0.35051226  0.96670049  0.39021641     0.35200
C1153       C  0.28716115  0.05769509  0.23003616     0.20800
C1154       C  0.29651509  0.05145344  0.24629265    -0.39100
C1155       C  0.27869249  0.02658663  0.25456450     0.19700
C1156       C  0.25350661  0.00922765  0.24719311     0.22400
C1157       C  0.24411007  0.01550657  0.23095832    -0.39600
C1158       C  0.26190297  0.04043701  0.22272061     0.21200
N1159       N  0.30028561  0.08004303  0.21954554    -0.32900
C1160       C  0.28320508  0.07707565  0.20551303    -0.10400
C1161       C  0.25904667  0.05263594  0.20701676    -0.29300
N1162       N  0.24055375  0.98675443  0.25758249    -0.45800
C1163       C  0.25762779  0.98984642  0.27167275    -0.05100
C1164       C  0.28160299  0.01446944  0.27026734    -0.22500
H1165       H  0.31623146  0.06494183  0.25205558     0.19300
H1166       H  0.22441964  0.00198520  0.22516851     0.18100
H1167       H  0.24179803  0.04482883  0.19781934     0.14400
H1168       H  0.29891136  0.02239250  0.27940872     0.14300
H1169       H  0.31960248  0.09635779  0.22184758     0.32400
H1170       H  0.22135037  0.97030678  0.25514899     0.35200
C1171       C  0.01855156  0.59706865  0.41851500     0.20800
C1172       C  0.02907630  0.58915738  0.43313948    -0.39100
C1173       C  0.01112010  0.56442930  0.44157189     0.19700
C1174       C  0.98467849  0.54881660  0.43591230     0.22400
C1175       C  0.97415972  0.55671101  0.42125988    -0.39600
C1176       C  0.99215389  0.58140014  0.41277856     0.21200
N1177       N  0.03163767  0.61943823  0.40803147    -0.32900
C1178       C  0.01351203  0.61792771  0.39541426    -0.10400
C1179       C  0.98861440  0.59452197  0.39798984    -0.29300
N1180       N  0.97168611  0.52632158  0.44629245    -0.45800
C1181       C  0.98998862  0.52761538  0.45865279    -0.05100
C1182       C  0.01483840  0.55107209  0.45610390    -0.22500
H1183       H  0.04974731  0.60131918  0.43758078     0.19300
H1184       H  0.95352982  0.54448583  0.41674288     0.18100
H1185       H  0.97047562  0.58781440  0.38996839     0.14400
H1186       H  0.03306559  0.55760543  0.46397479     0.14300
H1187       H  0.05179815  0.63452561  0.40917490     0.32400
H1188       H  0.95156711  0.51114147  0.44514427     0.35200
C1189       C  0.93130743  0.68439005  0.24533958     0.20800
C1190       C  0.92248048  0.69510539  0.23147318    -0.39100
C1191       C  0.89821326  0.67682589  0.22262943     0.19700
C1192       C  0.88386083  0.64994197  0.22724096     0.22400
C1193       C  0.89267625  0.63923365  0.24110808    -0.39600
C1194       C  0.91689326  0.65752115  0.24998116     0.21200
N1195       N  0.95353392  0.69759802  0.25596214    -0.32900
C1196       C  0.95315541  0.67902177  0.26753993    -0.10400
C1197       C  0.93063381  0.65378473  0.26419260    -0.29300
N1198       N  0.86145872  0.63676673  0.21680375    -0.45800
C1199       C  0.86155205  0.65538893  0.20544464    -0.05100
C1200       C  0.88415915  0.68061580  0.20866439    -0.22500
H1201       H  0.93363464  0.71612699  0.22787882     0.19300
H1202       H  0.88144420  0.61824118  0.24478560     0.18100
H1203       H  0.92495731  0.63523403  0.27128699     0.14400
H1204       H  0.88960590  0.69918025  0.20167983     0.14300
H1205       H  0.96781290  0.71804958  0.25556050     0.32400
H1206       H  0.84708357  0.61635237  0.21730097     0.35200
loop_ 
_geom_bond_atom_site_label_1 
_geom_bond_atom_site_label_2 
_geom_bond_distance 
_geom_bond_site_symmetry_2 
_ccdc_geom_bond_type 
N1            N2   1.322   1_655  A
N1            C5   1.344       .  A
N1           Cu9   2.073   1_655  S
N2            C3   1.346   1_455  A
N2           Cu8   2.073       .  S
C3            C4   1.384       .  A
C3            H6   1.082   1_655  S
C4            C5   1.383       .  A
C4         C1196   1.473       .  S
C5            H7   1.082       .  S
Cu8          N11   2.073       .  S
Cu9          N19   2.073       .  S
Cu10         N12   2.073       .  S
Cu10         N18   2.073       .  S
N11          N12   1.323       .  A
N11          C15   1.345       .  A
N12          C13   1.344       .  A
C13          C14   1.382       .  A
C13          H16   1.082       .  S
C14          C15   1.382       .  A
C14          C38   1.469       .  S
C15          H17   1.082       .  S
N18          N19   1.322       .  A
N18          C22   1.346       .  A
N19          C20   1.344       .  A
C20          C21   1.384       .  A
C20          H23   1.082   1_455  S
C21          C22   1.384       .  A
C21        C1178   1.474       .  S
C22          H24   1.082       .  S
N25          N26   1.321       .  A
N25          C29   1.344       .  A
N25         Cu33   2.072       .  S
N26          C27   1.346       .  A
N26         Cu32   2.072       .  S
C27          C28   1.384       .  A
C27          H30   1.082       .  S
C28          C29   1.384       .  A
C28        C1163   1.474       .  S
C29          H31   1.082       .  S
Cu32         N35   2.072       .  S
Cu33         N43   2.072       .  S
Cu34         N36   2.073       .  S
Cu34         N42   2.073       .  S
N35          N36   1.323       .  A
N35          C39   1.345       .  A
N36          C37   1.344       .  A
C37          C38   1.382       .  A
C37          H40   1.082       .  S
C38          C39   1.382       .  A
C39          H41   1.082       .  S
N42          N43   1.322       .  A
N42          C46   1.345       .  A
N43          C44   1.345       .  A
C44          C45   1.383       .  A
C44          H47   1.082       .  S
C45          C46   1.384       .  A
C45        C1145   1.473       .  S
C46          H48   1.082       .  S
N49          N50   1.322       .  A
N49          C53   1.346       .  A
N49         Cu57   2.077       .  S
N50          C51   1.346       .  A
N50         Cu56   2.080       .  S
C51          C52   1.386       .  A
C51          H54   1.082       .  S
C52          C53   1.385       .  A
C52        C1106   1.478       .  S
C53          H55   1.082       .  S
Cu56         N59   2.080       .  S
Cu57         N67   2.077       .  S
Cu58         N60   2.077       .  S
Cu58         N66   2.078       .  S
N59          N60   1.323       .  A
N59          C63   1.346       .  A
N60          C61   1.345       .  A
C61          C62   1.383       .  A
C61          H64   1.082       .  S
C62          C63   1.383       .  A
C62          C86   1.471       .  S
C63          H65   1.082       .  S
N66          N67   1.322       .  A
N66          C70   1.347       .  A
N67          C68   1.344       .  A
C68          C69   1.383       .  A
C68          H71   1.081       .  S
C69          C70   1.386       .  A
C69        C1124   1.476       .  S
C70          H72   1.082       .  S
N73          N74   1.322       .  A
N73          C77   1.345       .  A
N73         Cu81   2.075       .  S
N74          C75   1.345       .  A
N74         Cu80   2.073       .  S
C75          C76   1.384       .  A
C75          H78   1.082       .  S
C76          C77   1.384       .  A
C76        C1073   1.473       .  S
C77          H79   1.082   1_545  S
Cu80         N83   2.074       .  S
Cu81         N91   2.074   1_545  S
Cu82         N84   2.070       .  S
Cu82         N90   2.069       .  S
N83          N84   1.322       .  A
N83          C87   1.345       .  A
N84          C85   1.344       .  A
C85          C86   1.383       .  A
C85          H88   1.082       .  S
C86          C87   1.383       .  A
C87          H89   1.082       .  S
N90          N91   1.322   1_545  A
N90          C94   1.344   1_545  A
N91          C92   1.345       .  A
C92          C93   1.383       .  A
C92          H95   1.082       .  S
C93          C94   1.383       .  A
C93        C1091   1.471       .  S
C94          H96   1.082   1_565  S
O97        Cu105   2.006       .  S
O97         C107   1.277       .  A
O98        Cu105   2.009       .  S
O98         C108   1.277       .  A
O99        Cu105   2.008       .  S
O99         C109   1.278       .  A
O100       Cu105   2.013       .  S
O100        C110   1.278       .  A
O101       Cu106   2.010       .  S
O101        C110   1.278       .  A
O102       Cu106   2.010       .  S
O102        C109   1.278       .  A
O103       Cu106   2.005       .  S
O103        C108   1.277       .  A
O104       Cu106   2.005       .  S
O104        C107   1.277       .  A
Cu105      Cu106   2.376       .  S
C107       C1034   1.467       .  S
C108       C1052   1.468       .  S
C109       C1070   1.470       .  S
C110       C1142   1.472       .  S
O111       Cu119   2.010       .  S
O111        C121   1.277       .  A
O112       Cu119   2.011       .  S
O112        C122   1.278       .  A
O113       Cu119   2.017       .  S
O113        C123   1.278       .  A
O114       Cu119   2.016       .  S
O114        C124   1.278       .  A
O115       Cu120   2.013   1_455  S
O115        C124   1.278   1_455  A
O116       Cu120   2.013       .  S
O116        C123   1.278       .  A
O117       Cu120   2.019   1_455  S
O117        C122   1.278   1_455  A
O118       Cu120   2.013       .  S
O118        C121   1.278       .  A
Cu119      Cu120   2.374       .  S
C121        C998   1.472       .  S
C122       C1016   1.475       .  S
C123       C1109   1.475       .  S
C124       C1181   1.474       .  S
N125        N126   1.321   1_565  A
N125        C129   1.345   1_565  A
N125       Cu133   2.071   1_554  S
N126        C127   1.344       .  A
N126       Cu132   2.068   1_545  S
C127        C128   1.383       .  A
C127        H130   1.082       .  S
C128        C129   1.383       .  A
C128        C983   1.471       .  S
C129        H131   1.082       .  S
Cu132       N135   2.068       .  S
Cu133       N143   2.071       .  S
Cu134       N136   2.074       .  S
Cu134       N142   2.074       .  S
N135        N136   1.323   1_554  A
N135        C139   1.344       .  A
N136        C137   1.344       .  A
C137        C138   1.382       .  A
C137        H140   1.082       .  S
C138        C139   1.382   1_556  A
C138        C162   1.468       .  S
C139        H141   1.082       .  S
N142        N143   1.322       .  A
N142        C146   1.346       .  A
N143        C144   1.343       .  A
C144        C145   1.382       .  A
C144        H147   1.081       .  S
C145        C146   1.385       .  A
C145        C962   1.473       .  S
C146        H148   1.082       .  S
N149        N150   1.321       .  A
N149        C153   1.342       .  A
N149       Cu157   2.063   1_556  S
N150        C151   1.347       .  A
N150       Cu156   2.071       .  S
C151        C152   1.384       .  A
C151        H154   1.082       .  S
C152        C153   1.382       .  A
C152        C926   1.471       .  S
C153        H155   1.082       .  S
Cu156       N159   2.072       .  S
Cu157       N167   2.064       .  S
Cu158       N160   2.075       .  S
Cu158       N166   2.075       .  S
N159        N160   1.324   1_556  A
N159        C163   1.344       .  A
N160        C161   1.345       .  A
C161        C162   1.382   1_554  A
C161        H164   1.082       .  S
C162        C163   1.381       .  A
C163        H165   1.082       .  S
N166        N167   1.321       .  A
N166        C170   1.346   1_565  A
N167        C168   1.342       .  A
C168        C169   1.382   1_565  A
C168        H171   1.082       .  S
C169        C170   1.385       .  A
C169        C944   1.472       .  S
C170        H172   1.082       .  S
N173        N174   1.320       .  A
N173        C177   1.344       .  A
N173       Cu181   2.065   1_554  S
N174        C175   1.344       .  A
N174       Cu180   2.065       .  S
C175        C176   1.383       .  A
C175        H178   1.082       .  S
C176        C177   1.383       .  A
C176        C911   1.470       .  S
C177        H179   1.082       .  S
Cu180       N183   2.065       .  S
Cu181       N191   2.065       .  S
Cu182       N184   2.088       .  S
Cu182       N190   2.088   1_655  S
N183        N184   1.323   1_554  A
N183        C187   1.343       .  A
N184        C185   1.347       .  A
C185        C186   1.386       .  A
C185        H188   1.082       .  S
C186        C187   1.380   1_556  A
C186        C210   1.471       .  S
C187        H189   1.082       .  S
N190        N191   1.322   1_455  A
N190        C194   1.349       .  A
N191        C192   1.342   1_655  A
C192        C193   1.381       .  A
C192        H195   1.081       .  S
C193        C194   1.388       .  A
C193        C890   1.475       .  S
C194        H196   1.082       .  S
N197        N198   1.320   1_655  A
N197        C201   1.343   1_655  A
N197       Cu205   2.062   1_556  S
N198        C199   1.345       .  A
N198       Cu204   2.067   1_455  S
C199        C200   1.383       .  A
C199        H202   1.082       .  S
C200        C201   1.383       .  A
C200        C854   1.471       .  S
C201        H203   1.082       .  S
Cu204       N207   2.068       .  S
Cu205       N215   2.062       .  S
Cu206       N208   2.084       .  S
Cu206       N214   2.083       .  S
N207        N208   1.323   1_556  A
N207        C211   1.344       .  A
N208        C209   1.346       .  A
C209        C210   1.385   1_554  A
C209        H212   1.082       .  S
C210        C211   1.380       .  A
C211        H213   1.082       .  S
N214        N215   1.323       .  A
N214        C218   1.348       .  A
N215        C216   1.340       .  A
C216        C217   1.380       .  A
C216        H219   1.082       .  S
C217        C218   1.386       .  A
C217        C872   1.472       .  S
C218        H220   1.082       .  S
N221        N222   1.321   1_655  A
N221        C225   1.342       .  A
N221       Cu229   2.066   1_655  S
N222        C223   1.346   1_455  A
N222       Cu228   2.070       .  S
C223        C224   1.384       .  A
C223        H226   1.082   1_655  S
C224        C225   1.381       .  A
C224        C839   1.469       .  S
C225        H227   1.082       .  S
Cu228       N231   2.070       .  S
Cu229       N239   2.067       .  S
Cu230       N232   2.088       .  S
Cu230       N238   2.087       .  S
N231        N232   1.324       .  A
N231        C235   1.344       .  A
N232        C233   1.347       .  A
C233        C234   1.385       .  A
C233        H236   1.082       .  S
C234        C235   1.381       .  A
C234        C258   1.473       .  S
C235        H237   1.082       .  S
N238        N239   1.321       .  A
N238        C242   1.349       .  A
N239        C240   1.343       .  A
C240        C241   1.383       .  A
C240        H243   1.082   1_455  S
C241        C242   1.387       .  A
C241       C1019   1.478       .  S
C242        H244   1.082       .  S
N245        N246   1.321       .  A
N245        C249   1.343       .  A
N245       Cu253   2.061       .  S
N246        C247   1.345       .  A
N246       Cu252   2.074       .  S
C247        C248   1.385       .  A
C247        H250   1.082       .  S
C248        C249   1.382       .  A
C248        C803   1.472       .  S
C249        H251   1.082       .  S
Cu252       N255   2.075       .  S
Cu253       N263   2.061       .  S
Cu254       N256   2.086       .  S
Cu254       N262   2.086       .  S
N255        N256   1.324       .  A
N255        C259   1.346       .  A
N256        C257   1.346       .  A
C257        C258   1.385       .  A
C257        H260   1.082       .  S
C258        C259   1.382       .  A
C259        H261   1.082       .  S
N262        N263   1.322       .  A
N262        C266   1.349       .  A
N263        C264   1.341       .  A
C264        C265   1.380       .  A
C264        H267   1.082       .  S
C265        C266   1.387       .  A
C265        C818   1.474       .  S
C266        H268   1.082       .  S
O269       Cu277   2.010       .  S
O269        C279   1.277       .  A
O270       Cu277   2.011       .  S
O270        C280   1.278       .  A
O271       Cu277   2.007       .  S
O271        C281   1.277       .  A
O272       Cu277   2.009       .  S
O272        C282   1.278       .  A
O273       Cu278   2.011       .  S
O273        C282   1.278       .  A
O274       Cu278   2.012       .  S
O274        C281   1.278       .  A
O275       Cu278   2.009       .  S
O275        C280   1.277       .  A
O276       Cu278   2.010       .  S
O276        C279   1.278       .  A
Cu277      Cu278   2.375       .  S
C279       C1160   1.470       .  S
C280        C782   1.471       .  S
C281        C821   1.470       .  S
C282        C947   1.471       .  S
N283        N284   1.322       .  A
N283        C287   1.343       .  A
N283       Cu291   2.070       .  S
N284        C285   1.348       .  A
N284       Cu290   2.081       .  S
C285        C286   1.385       .  A
C285        H288   1.082       .  S
C286        C287   1.383       .  A
C286        C746   1.475       .  S
C287        H289   1.082       .  S
Cu290       N293   2.082       .  S
Cu291       N301   2.070       .  S
Cu292       N294   2.072       .  S
Cu292       N300   2.072       .  S
N293        N294   1.323       .  A
N293        C297   1.346       .  A
N294        C295   1.345       .  A
C295        C296   1.382       .  A
C295        H298   1.082       .  S
C296        C297   1.384       .  A
C296        C320   1.471       .  S
C297        H299   1.082       .  S
N300        N301   1.321       .  A
N300        C304   1.347       .  A
N301        C302   1.342       .  A
C302        C303   1.383       .  A
C302        H305   1.081       .  S
C303        C304   1.384       .  A
C303        C767   1.472       .  S
C304        H306   1.082       .  S
N307        N308   1.322       .  A
N307        C311   1.343       .  A
N307       Cu315   2.063       .  S
N308        C309   1.346       .  A
N308       Cu314   2.079       .  S
C309        C310   1.385       .  A
C309        H312   1.082       .  S
C310        C311   1.381       .  A
C310        C728   1.472       .  S
C311        H313   1.082       .  S
Cu314       N317   2.080       .  S
Cu315       N325   2.063       .  S
Cu316       N318   2.073       .  S
Cu316       N324   2.072       .  S
N317        N318   1.324       .  A
N317        C321   1.346       .  A
N318        C319   1.344       .  A
C319        C320   1.381       .  A
C319        H322   1.082       .  S
C320        C321   1.384       .  A
C321        H323   1.082       .  S
N324        N325   1.321       .  A
N324        C328   1.346       .  A
N325        C326   1.342       .  A
C326        C327   1.382       .  A
C326        H329   1.081       .  S
C327        C328   1.385       .  A
C327       C1055   1.472       .  S
C328        H330   1.082       .  S
O331       Cu339   2.013       .  S
O331        C341   1.278       .  A
O332       Cu339   2.011       .  S
O332        C342   1.277       .  A
O333       Cu339   2.011       .  S
O333        C343   1.277       .  A
O334       Cu339   2.009       .  S
O334        C344   1.278       .  A
O335       Cu340   2.004       .  S
O335        C344   1.277       .  A
O336       Cu340   2.004       .  S
O336        C343   1.278       .  A
O337       Cu340   2.010       .  S
O337        C342   1.278       .  A
O338       Cu340   2.009       .  S
O338        C341   1.277       .  A
Cu339      Cu340   2.376       .  S
C341       C1199   1.472       .  S
C342        C713   1.471       .  S
C343        C764   1.469       .  S
C344        C875   1.468       .  S
O345       Cu353   2.004       .  S
O345        C355   1.277       .  A
O346       Cu353   2.005       .  S
O346        C356   1.277       .  A
O347       Cu353   1.995       .  S
O347        C357   1.276       .  A
O348       Cu353   1.997       .  S
O348        C358   1.276       .  A
O349       Cu354   2.013       .  S
O349        C358   1.278       .  A
O350       Cu354   2.014       .  S
O350        C357   1.278       .  A
O351       Cu354   2.008       .  S
O351        C356   1.277       .  A
O352       Cu354   2.012       .  S
O352        C355   1.278       .  A
Cu353      Cu354   2.376       .  S
C355        C908   1.469       .  S
C356        C731   1.468       .  S
C357        C980   1.467       .  S
C358        C836   1.467       .  S
N359        N360   1.321       .  A
N359        C363   1.344       .  A
N359       Cu367   2.063       .  S
N360        C361   1.345       .  A
N360       Cu366   2.073       .  S
C361        C362   1.384       .  A
C361        H364   1.082       .  S
C362        C363   1.382       .  A
C362        C692   1.472       .  S
C363        H365   1.082       .  S
Cu366       N369   2.073       .  S
Cu367       N377   2.063   1_556  S
Cu368       N370   2.084       .  S
Cu368       N376   2.084       .  S
N369        N370   1.323   1_556  A
N369        C373   1.346       .  A
N370        C371   1.346       .  A
C371        C372   1.384       .  A
C371        H374   1.082       .  S
C372        C373   1.382   1_554  A
C372        C396   1.472       .  S
C373        H375   1.082       .  S
N376        N377   1.322       .  A
N376        C380   1.347       .  A
N377        C378   1.343       .  A
C378        C379   1.381       .  A
C378        H381   1.082       .  S
C379        C380   1.386       .  A
C379        C785   1.473       .  S
C380        H382   1.082       .  S
N383        N384   1.321       .  A
N383        C387   1.343       .  A
N383       Cu391   2.061       .  S
N384        C385   1.345       .  A
N384       Cu390   2.076       .  S
C385        C386   1.385       .  A
C385        H388   1.082       .  S
C386        C387   1.381       .  A
C386        C674   1.470       .  S
C387        H389   1.082       .  S
Cu390       N393   2.077       .  S
Cu391       N401   2.061   1_556  S
Cu392       N394   2.075       .  S
Cu392       N400   2.075       .  S
N393        N394   1.323   1_556  A
N393        C397   1.346       .  A
N394        C395   1.344       .  A
C395        C396   1.382       .  A
C395        H398   1.082       .  S
C396        C397   1.384   1_554  A
C397        H399   1.082       .  S
N400        N401   1.321       .  A
N400        C404   1.346       .  A
N401        C402   1.342       .  A
C402        C403   1.381       .  A
C402        H405   1.082       .  S
C403        C404   1.385       .  A
C403        C710   1.471       .  S
C404        H406   1.082       .  S
N407        N408   1.321       .  A
N407        C411   1.341       .  A
N407       Cu415   2.059       .  S
N408        C409   1.345       .  A
N408       Cu414   2.068       .  S
C409        C410   1.383       .  A
C409        H412   1.082       .  S
C410        C411   1.381       .  A
C410        C656   1.468       .  S
C411        H413   1.082       .  S
Cu414       N417   2.069       .  S
Cu415       N425   2.060       .  S
Cu416       N418   2.086       .  S
Cu416       N424   2.085       .  S
N417        N418   1.324       .  A
N417        C421   1.345       .  A
N418        C419   1.346       .  A
C419        C420   1.385       .  A
C419        H422   1.082       .  S
C420        C421   1.381       .  A
C420        C444   1.472       .  S
C421        H423   1.082       .  S
N424        N425   1.321       .  A
N424        C428   1.348       .  A
N425        C426   1.342       .  A
C426        C427   1.381       .  A
C426        H429   1.082       .  S
C427        C428   1.387       .  A
C427       C1001   1.474       .  S
C428        H430   1.082       .  S
N431        N432   1.321       .  A
N431        C435   1.343       .  A
N431       Cu439   2.069       .  S
N432        C433   1.346       .  A
N432       Cu438   2.072       .  S
C433        C434   1.384       .  A
C433        H436   1.082       .  S
C434        C435   1.383       .  A
C434        C623   1.473       .  S
C435        H437   1.082       .  S
Cu438       N441   2.073       .  S
Cu439       N449   2.070       .  S
Cu440       N442   2.087       .  S
Cu440       N448   2.088       .  S
N441        N442   1.324       .  A
N441        C445   1.345       .  A
N442        C443   1.346       .  A
C443        C444   1.385       .  A
C443        H446   1.082       .  S
C444        C445   1.382       .  A
C445        H447   1.082       .  S
N448        N449   1.322       .  A
N448        C452   1.349       .  A
N449        C450   1.344       .  A
C450        C451   1.383       .  A
C450        H453   1.082       .  S
C451        C452   1.387       .  A
C451        C638   1.478       .  S
C452        H454   1.082       .  S
O455       Cu463   2.004       .  S
O455        C465   1.277       .  A
O456       Cu463   2.008       .  S
O456        C466   1.277       .  A
O457       Cu463   2.008       .  S
O457        C467   1.278       .  A
O458       Cu463   2.015       .  S
O458        C468   1.278       .  A
O459       Cu464   2.016       .  S
O459        C468   1.278       .  A
O460       Cu464   2.013       .  S
O460        C467   1.278       .  A
O461       Cu464   1.998       .  S
O461        C466   1.277       .  A
O462       Cu464   2.004       .  S
O462        C465   1.277       .  A
Cu463      Cu464   2.376       .  S
C465        C677   1.466       .  S
C466       C1088   1.466       .  S
C467        C965   1.471       .  S
C468        C641   1.475       .  S
N469        N470   1.321   1_565  A
N469        C473   1.342       .  A
N469       Cu477   2.060   1_565  S
N470        C471   1.345   1_545  A
N470       Cu476   2.069       .  S
C471        C472   1.383       .  A
C471        H474   1.082   1_565  S
C472        C473   1.381       .  A
C472        C602   1.469       .  S
C473        H475   1.082       .  S
Cu476       N479   2.071       .  S
Cu477       N487   2.060       .  S
Cu478       N480   2.073       .  S
Cu478       N486   2.073       .  S
N479        N480   1.323       .  A
N479        C483   1.344       .  A
N480        C481   1.345       .  A
C481        C482   1.382       .  A
C481        H484   1.082       .  S
C482        C483   1.382       .  A
C482        C506   1.469       .  S
C483        H485   1.082       .  S
N486        N487   1.321       .  A
N486        C490   1.345       .  A
N487        C488   1.342       .  A
C488        C489   1.381       .  A
C488        H491   1.082   1_545  S
C489        C490   1.384       .  A
C489       C1037   1.470       .  S
C490        H492   1.082       .  S
N493        N494   1.321       .  A
N493        C497   1.343       .  A
N493       Cu501   2.063       .  S
N494        C495   1.346       .  A
N494       Cu500   2.073       .  S
C495        C496   1.385       .  A
C495        H498   1.082       .  S
C496        C497   1.382       .  A
C496        C566   1.472       .  S
C497        H499   1.082       .  S
Cu500       N503   2.074       .  S
Cu501       N511   2.063       .  S
Cu502       N504   2.074       .  S
Cu502       N510   2.073       .  S
N503        N504   1.323       .  A
N503        C507   1.345       .  A
N504        C505   1.344       .  A
C505        C506   1.382       .  A
C505        H508   1.082       .  S
C506        C507   1.382       .  A
C507        H509   1.082       .  S
N510        N511   1.321       .  A
N510        C514   1.347       .  A
N511        C512   1.342       .  A
C512        C513   1.381       .  A
C512        H515   1.082       .  S
C513        C514   1.385       .  A
C513        C587   1.471       .  S
C514        H516   1.082       .  S
O517       Cu525   2.007       .  S
O517        C527   1.277       .  A
O518       Cu525   2.009       .  S
O518        C528   1.278       .  A
O519       Cu525   2.014       .  S
O519        C529   1.278       .  A
O520       Cu525   2.008       .  S
O520        C530   1.277       .  A
O521       Cu526   2.012       .  S
O521        C530   1.278       .  A
O522       Cu526   2.013       .  S
O522        C529   1.278       .  A
O523       Cu526   2.009       .  S
O523        C528   1.277       .  A
O524       Cu526   2.005       .  S
O524        C527   1.277       .  A
Cu525      Cu526   2.376       .  S
C527        C584   1.468       .  S
C528        C893   1.470       .  S
C529       C1127   1.473       .  S
C530        C695   1.470       .  S
O531       Cu539   2.000       .  S
O531        C541   1.277       .  A
O532       Cu539   2.003       .  S
O532        C542   1.277       .  A
O533       Cu539   2.004       .  S
O533        C543   1.277       .  A
O534       Cu539   2.005       .  S
O534        C544   1.277       .  A
O535       Cu540   2.002       .  S
O535        C544   1.277       .  A
O536       Cu540   2.008       .  S
O536        C543   1.277       .  A
O537       Cu540   2.002       .  S
O537        C542   1.277       .  A
O538       Cu540   2.006       .  S
O538        C541   1.277       .  A
Cu539      Cu540   2.377       .  S
C541        C929   1.466       .  S
C542        C659   1.465       .  S
C543        C857   1.468       .  S
C544        C605   1.465       .  S
O545       Cu553   2.014       .  S
O545        C555   1.278       .  A
O546       Cu553   2.008       .  S
O546        C556   1.278       .  A
O547       Cu553   2.007       .  S
O547        C557   1.277       .  A
O548       Cu553   2.004       .  S
O548        C558   1.277       .  A
O549       Cu554   2.016       .  S
O549        C558   1.278       .  A
O550       Cu554   2.011       .  S
O550        C557   1.278       .  A
O551       Cu554   2.009       .  S
O551        C556   1.277       .  A
O552       Cu554   2.005       .  S
O552        C555   1.277       .  A
Cu553      Cu554   2.376       .  S
C555        C800   1.470       .  S
C556        C620   1.470       .  S
C557        C749   1.470       .  S
C558        C569   1.470       .  S
C559        N565   1.344       .  A
C559        C564   1.384       .  A
C559        C560   1.404       .  A
C560        C561   1.404       .  A
C560        H571   1.082       .  S
C561        C570   1.380       .  A
C561        C562   1.385       .  A
C562        N568   1.341       .  A
C562        C563   1.402       .  A
C563        C564   1.400       .  A
C563        H572   1.082       .  S
C564        C567   1.376       .  A
N565        C566   1.356       .  A
N565        H575   1.044       .  S
C566        C567   1.395       .  A
C567        H573   1.082       .  S
N568        C569   1.355       .  A
N568        H576   1.045       .  S
C569        C570   1.396       .  A
C570        H574   1.082       .  S
C577        N583   1.342       .  A
C577        C582   1.385       .  A
C577        C578   1.401       .  A
C578        C579   1.400       .  A
C578        H589   1.082       .  S
C579        C588   1.374       .  A
C579        C580   1.384       .  A
C580        N586   1.344       .  A
C580        C581   1.403       .  A
C581        C582   1.403       .  A
C581        H590   1.082       .  S
C582        C585   1.377       .  A
N583        C584   1.354       .  A
N583        H593   1.045       .  S
C584        C585   1.395       .  A
C585        H591   1.082       .  S
N586        C587   1.356       .  A
N586        H594   1.044       .  S
C587        C588   1.394       .  A
C588        H592   1.082       .  S
C595        N601   1.341       .  A
C595        C600   1.385       .  A
C595        C596   1.401       .  A
C596        C597   1.400       .  A
C596        H607   1.082       .  S
C597        C606   1.375       .  A
C597        C598   1.385       .  A
C598        N604   1.342       .  A
C598        C599   1.402       .  A
C599        C600   1.401       .  A
C599        H608   1.082       .  S
C600        C603   1.377       .  A
N601        C602   1.355       .  A
N601        H611   1.044       .  S
C602        C603   1.394       .  A
C603        H609   1.082       .  S
N604        C605   1.355       .  A
N604        H612   1.045       .  S
C605        C606   1.393       .  A
C606        H610   1.082       .  S
C613        N619   1.342       .  A
C613        C618   1.385       .  A
C613        C614   1.401       .  A
C614        C615   1.400       .  A
C614        H625   1.082       .  S
C615        C624   1.375       .  A
C615        C616   1.384       .  A
C616        N622   1.344       .  A
C616        C617   1.405       .  A
C617        C618   1.404       .  A
C617        H626   1.082       .  S
C618        C621   1.379       .  A
N619        C620   1.354       .  A
N619        H629   1.045       .  S
C620        C621   1.396       .  A
C621        H627   1.082       .  S
N622        C623   1.357       .  A
N622        H630   1.044       .  S
C623        C624   1.394       .  A
C624        H628   1.082       .  S
C631        N637   1.346       .  A
C631        C636   1.384       .  A
C631        C632   1.405       .  A
C632        C633   1.404       .  A
C632        H643   1.082       .  S
C633        C642   1.379       .  A
C633        C634   1.384       .  A
C634        N640   1.345       .  A
C634        C635   1.404       .  A
C635        C636   1.404       .  A
C635        H644   1.082       .  S
C636        C639   1.378       .  A
N637        C638   1.357       .  A
N637        H647   1.044       .  S
C638        C639   1.397       .  A
C639        H645   1.082       .  S
N640        C641   1.356       .  A
N640        H648   1.045       .  S
C641        C642   1.396       .  A
C642        H646   1.082       .  S
C649        N655   1.343   1_455  A
C649        C654   1.385       .  A
C649        C650   1.402       .  A
C650        C651   1.402       .  A
C650        H661   1.082       .  S
C651        C660   1.376       .  A
C651        C652   1.385       .  A
C652        N658   1.341       .  A
C652        C653   1.400       .  A
C653        C654   1.399       .  A
C653        H662   1.082       .  S
C654        C657   1.373       .  A
N655        C656   1.355       .  A
N655        H665   1.044       .  S
C656        C657   1.394   1_655  A
C657        H663   1.082       .  S
N658        C659   1.354       .  A
N658        H666   1.045       .  S
C659        C660   1.394       .  A
C660        H664   1.082       .  S
C667        N673   1.342       .  A
C667        C672   1.384       .  A
C667        C668   1.402       .  A
C668        C669   1.401       .  A
C668        H679   1.082       .  S
C669        C678   1.376       .  A
C669        C670   1.385       .  A
C670        N676   1.342       .  A
C670        C671   1.402       .  A
C671        C672   1.401       .  A
C671        H680   1.082       .  S
C672        C675   1.376       .  A
N673        C674   1.356       .  A
N673        H683   1.045       .  S
C674        C675   1.394       .  A
C675        H681   1.082       .  S
N676        C677   1.355       .  A
N676        H684   1.044       .  S
C677        C678   1.394       .  A
C678        H682   1.082       .  S
C685        N691   1.343       .  A
C685        C690   1.384       .  A
C685        C686   1.404       .  A
C686        C687   1.403       .  A
C686        H697   1.082       .  S
C687        C696   1.378       .  A
C687        C688   1.385       .  A
C688        N694   1.343       .  A
C688        C689   1.402       .  A
C689        C690   1.401       .  A
C689        H698   1.082       .  S
C690        C693   1.376       .  A
N691        C692   1.356       .  A
N691        H701   1.045       .  S
C692        C693   1.394       .  A
C693        H699   1.082       .  S
N694        C695   1.355       .  A
N694        H702   1.045       .  S
C695        C696   1.396       .  A
C696        H700   1.082       .  S
C703        N709   1.342       .  A
C703        C708   1.385       .  A
C703        C704   1.402       .  A
C704        C705   1.401       .  A
C704        H715   1.082       .  S
C705        C714   1.376       .  A
C705        C706   1.385       .  A
C706        N712   1.344       .  A
C706        C707   1.404       .  A
C707        C708   1.403       .  A
C707        H716   1.082       .  S
C708        C711   1.377       .  A
N709        C710   1.355       .  A
N709        H719   1.044       .  S
C710        C711   1.396       .  A
C711        H717   1.082       .  S
N712        C713   1.356       .  A
N712        H720   1.045       .  S
C713        C714   1.394       .  A
C714        H718   1.082       .  S
C721        N727   1.342       .  A
C721        C726   1.384       .  A
C721        C722   1.404       .  A
C722        C723   1.403       .  A
C722        H733   1.083       .  S
C723        C732   1.379       .  A
C723        C724   1.385       .  A
C724        N730   1.342       .  A
C724        C725   1.402       .  A
C725        C726   1.400       .  A
C725        H734   1.082       .  S
C726        C729   1.376   1_545  A
N727        C728   1.356   1_545  A
N727        H737   1.047       .  S
C728        C729   1.394       .  A
C729        H735   1.082       .  S
N730        C731   1.355       .  A
N730        H738   1.043       .  S
C731        C732   1.395       .  A
C732        H736   1.082       .  S
C739        N745   1.346       .  A
C739        C744   1.384       .  A
C739        C740   1.406       .  A
C740        C741   1.406       .  A
C740        H751   1.082       .  S
C741        C750   1.380       .  A
C741        C742   1.385       .  A
C742        N748   1.342       .  A
C742        C743   1.400       .  A
C743        C744   1.400       .  A
C743        H752   1.082       .  S
C744        C747   1.374       .  A
N745        C746   1.357       .  A
N745        H755   1.044       .  S
C746        C747   1.394       .  A
C747        H753   1.082       .  S
N748        C749   1.354       .  A
N748        H756   1.045       .  S
C749        C750   1.397       .  A
C750        H754   1.082       .  S
C757        N763   1.345       .  A
C757        C762   1.384       .  A
C757        C758   1.406       .  A
C758        C759   1.405       .  A
C758        H769   1.082       .  S
C759        C768   1.381       .  A
C759        C760   1.384       .  A
C760        N766   1.340       .  A
C760        C761   1.400       .  A
C761        C762   1.399       .  A
C761        H770   1.082       .  S
C762        C765   1.374       .  A
N763        C764   1.357       .  A
N763        H773   1.044       .  S
C764        C765   1.393       .  A
C765        H771   1.082       .  S
N766        C767   1.354       .  A
N766        H774   1.044       .  S
C767        C768   1.397       .  A
C768        H772   1.082       .  S
C775        N781   1.343       .  A
C775        C780   1.385       .  A
C775        C776   1.403       .  A
C776        C777   1.402       .  A
C776        H787   1.082       .  S
C777        C786   1.378       .  A
C777        C778   1.384       .  A
C778        N784   1.343       .  A
C778        C779   1.404       .  A
C779        C780   1.403       .  A
C779        H788   1.082       .  S
C780        C783   1.379       .  A
N781        C782   1.355       .  A
N781        H791   1.045       .  S
C782        C783   1.396       .  A
C783        H789   1.082       .  S
N784        C785   1.356       .  A
N784        H792   1.045       .  S
C785        C786   1.394       .  A
C786        H790   1.082       .  S
C793        N799   1.343       .  A
C793        C798   1.385       .  A
C793        C794   1.403       .  A
C794        C795   1.402       .  A
C794        H805   1.082       .  S
C795        C804   1.377       .  A
C795        C796   1.384       .  A
C796        N802   1.343       .  A
C796        C797   1.403       .  A
C797        C798   1.402       .  A
C797        H806   1.082       .  S
C798        C801   1.378       .  A
N799        C800   1.356       .  A
N799        H809   1.045       .  S
C800        C801   1.395       .  A
C801        H807   1.082       .  S
N802        C803   1.355       .  A
N802        H810   1.044       .  S
C803        C804   1.396       .  A
C804        H808   1.082       .  S
C811        N817   1.345       .  A
C811        C816   1.384       .  A
C811        C812   1.404       .  A
C812        C813   1.404       .  A
C812        H823   1.082       .  S
C813        C822   1.378       .  A
C813        C814   1.385       .  A
C814        N820   1.343       .  A
C814        C815   1.402       .  A
C815        C816   1.402       .  A
C815        H824   1.082       .  S
C816        C819   1.375       .  A
N817        C818   1.356       .  A
N817        H827   1.044       .  S
C818        C819   1.395       .  A
C819        H825   1.082       .  S
N820        C821   1.355       .  A
N820        H828   1.045       .  S
C821        C822   1.395       .  A
C822        H826   1.082       .  S
C829        N835   1.340       .  A
C829        C834   1.385       .  A
C829        C830   1.402       .  A
C830        C831   1.400       .  A
C830        H841   1.082       .  S
C831        C840   1.377       .  A
C831        C832   1.384       .  A
C832        N838   1.341       .  A
C832        C833   1.403       .  A
C833        C834   1.401       .  A
C833        H842   1.082       .  S
C834        C837   1.378       .  A
N835        C836   1.355       .  A
N835        H845   1.044       .  S
C836        C837   1.394       .  A
C837        H843   1.082       .  S
N838        C839   1.355       .  A
N838        H846   1.045       .  S
C839        C840   1.394       .  A
C840        H844   1.082       .  S
C847        N853   1.343       .  A
C847        C852   1.384       .  A
C847        C848   1.404       .  A
C848        C849   1.403       .  A
C848        H859   1.082       .  S
C849        C858   1.378       .  A
C849        C850   1.385       .  A
C850        N856   1.341       .  A
C850        C851   1.401       .  A
C851        C852   1.400       .  A
C851        H860   1.082       .  S
C852        C855   1.375       .  A
N853        C854   1.356       .  A
N853        H863   1.044       .  S
C854        C855   1.394       .  A
C855        H861   1.082       .  S
N856        C857   1.354       .  A
N856        H864   1.045       .  S
C857        C858   1.395       .  A
C858        H862   1.082       .  S
C865        N871   1.345       .  A
C865        C870   1.384       .  A
C865        C866   1.404       .  A
C866        C867   1.404       .  A
C866        H877   1.082       .  S
C867        C876   1.378       .  A
C867        C868   1.385       .  A
C868        N874   1.342       .  A
C868        C869   1.400       .  A
C869        C870   1.400       .  A
C869        H878   1.082       .  S
C870        C873   1.373       .  A
N871        C872   1.356       .  A
N871        H881   1.044       .  S
C872        C873   1.394       .  A
C873        H879   1.082       .  S
N874        C875   1.354       .  A
N874        H882   1.045       .  S
C875        C876   1.396       .  A
C876        H880   1.082       .  S
C883        N889   1.341       .  A
C883        C888   1.384       .  A
C883        C884   1.402       .  A
C884        C885   1.401       .  A
C884        H895   1.082       .  S
C885        C894   1.377       .  A
C885        C886   1.384       .  A
C886        N892   1.344       .  A
C886        C887   1.405       .  A
C887        C888   1.404       .  A
C887        H896   1.082       .  S
C888        C891   1.381       .  A
N889        C890   1.356       .  A
N889        H899   1.044       .  S
C890        C891   1.396       .  A
C891        H897   1.082       .  S
N892        C893   1.356       .  A
N892        H900   1.044       .  S
C893        C894   1.394       .  A
C894        H898   1.082       .  S
C901        N907   1.342       .  A
C901        C906   1.385       .  A
C901        C902   1.402       .  A
C902        C903   1.401       .  A
C902        H913   1.082       .  S
C903        C912   1.377       .  A
C903        C904   1.384       .  A
C904        N910   1.342       .  A
C904        C905   1.403       .  A
C905        C906   1.402       .  A
C905        H914   1.082       .  S
C906        C909   1.378       .  A
N907        C908   1.355       .  A
N907        H917   1.045       .  S
C908        C909   1.395       .  A
C909        H915   1.082       .  S
N910        C911   1.355       .  A
N910        H918   1.044       .  S
C911        C912   1.395       .  A
C912        H916   1.082       .  S
C919        N925   1.344       .  A
C919        C924   1.384       .  A
C919        C920   1.404       .  A
C920        C921   1.403       .  A
C920        H931   1.082       .  S
C921        C930   1.378       .  A
C921        C922   1.385       .  A
C922        N928   1.341       .  A
C922        C923   1.400       .  A
C923        C924   1.399       .  A
C923        H932   1.082       .  S
C924        C927   1.373       .  A
N925        C926   1.356       .  A
N925        H935   1.044       .  S
C926        C927   1.394       .  A
C927        H933   1.082       .  S
N928        C929   1.354       .  A
N928        H936   1.045       .  S
C929        C930   1.395       .  A
C930        H934   1.082       .  S
C937        N943   1.344       .  A
C937        C942   1.384       .  A
C937        C938   1.403       .  A
C938        C939   1.403       .  A
C938        H949   1.082       .  S
C939        C948   1.377       .  A
C939        C940   1.385       .  A
C940        N946   1.343       .  A
C940        C941   1.402       .  A
C941        C942   1.402       .  A
C941        H950   1.082       .  S
C942        C945   1.376       .  A
N943        C944   1.356       .  A
N943        H953   1.044       .  S
C944        C945   1.395       .  A
C945        H951   1.082       .  S
N946        C947   1.355       .  A
N946        H954   1.045       .  S
C947        C948   1.395       .  A
C948        H952   1.082       .  S
C955        N961   1.341       .  A
C955        C960   1.384       .  A
C955        C956   1.402       .  A
C956        C957   1.401       .  A
C956        H967   1.082       .  S
C957        C966   1.377       .  A
C957        C958   1.384       .  A
C958        N964   1.344       .  A
C958        C959   1.404       .  A
C959        C960   1.403       .  A
C959        H968   1.082       .  S
C960        C963   1.380       .  A
N961        C962   1.355       .  A
N961        H971   1.044       .  S
C962        C963   1.396       .  A
C963        H969   1.082       .  S
N964        C965   1.356       .  A
N964        H972   1.044       .  S
C965        C966   1.395       .  A
C966        H970   1.082       .  S
C973        N979   1.343       .  A
C973        C978   1.385       .  A
C973        C974   1.402       .  A
C974        C975   1.402       .  A
C974        H985   1.082       .  S
C975        C984   1.376       .  A
C975        C976   1.385       .  A
C976        N982   1.343       .  A
C976        C977   1.402       .  A
C977        C978   1.401       .  A
C977        H986   1.082       .  S
C978        C981   1.375       .  A
N979        C980   1.355       .  A
N979        H989   1.045       .  S
C980        C981   1.395       .  A
C981        H987   1.082       .  S
N982        C983   1.355       .  A
N982        H990   1.044       .  S
C983        C984   1.395       .  A
C984        H988   1.082       .  S
C991        N997   1.343       .  A
C991        C996   1.385       .  A
C991        C992   1.402       .  A
C992        C993   1.401       .  A
C992       H1003   1.082       .  S
C993       C1002   1.375       .  A
C993        C994   1.384       .  A
C994       N1000   1.345       .  A
C994        C995   1.405       .  A
C995        C996   1.404       .  A
C995       H1004   1.082       .  S
C996        C999   1.379       .  A
N997        C998   1.355       .  A
N997       H1007   1.045       .  S
C998        C999   1.396       .  A
C999       H1005   1.082       .  S
N1000      C1001   1.356       .  A
N1000      H1008   1.044       .  S
C1001      C1002   1.395       .  A
C1002      H1006   1.082       .  S
C1009      N1015   1.343       .  A
C1009      C1014   1.384   1_655  A
C1009      C1010   1.402       .  A
C1010      C1011   1.401       .  A
C1010      H1021   1.082       .  S
C1011      C1020   1.376       .  A
C1011      C1012   1.384   1_655  A
C1012      N1018   1.347       .  A
C1012      C1013   1.407       .  A
C1013      C1014   1.406       .  A
C1013      H1022   1.082       .  S
C1014      C1017   1.382       .  A
N1015      C1016   1.355       .  A
N1015      H1025   1.045       .  S
C1016      C1017   1.397   1_655  A
C1017      H1023   1.082       .  S
N1018      C1019   1.358       .  A
N1018      H1026   1.044       .  S
C1019      C1020   1.395   1_455  A
C1020      H1024   1.082       .  S
C1027      N1033   1.342       .  A
C1027      C1032   1.385   1_545  A
C1027      C1028   1.403       .  A
C1028      C1029   1.401       .  A
C1028      H1039   1.082       .  S
C1029      C1038   1.377       .  A
C1029      C1030   1.384   1_545  A
C1030      N1036   1.341       .  A
C1030      C1031   1.402       .  A
C1031      C1032   1.400       .  A
C1031      H1040   1.082       .  S
C1032      C1035   1.376       .  A
N1033      C1034   1.355   1_545  A
N1033      H1043   1.044       .  S
C1034      C1035   1.394       .  A
C1035      H1041   1.082       .  S
N1036      C1037   1.355   1_565  A
N1036      H1044   1.044       .  S
C1037      C1038   1.395       .  A
C1038      H1042   1.082       .  S
C1045      N1051   1.343       .  A
C1045      C1050   1.385       .  A
C1045      C1046   1.404       .  A
C1046      C1047   1.403       .  A
C1046      H1057   1.082       .  S
C1047      C1056   1.379       .  A
C1047      C1048   1.384       .  A
C1048      N1054   1.341       .  A
C1048      C1049   1.401       .  A
C1049      C1050   1.400       .  A
C1049      H1058   1.082       .  S
C1050      C1053   1.376       .  A
N1051      C1052   1.356       .  A
N1051      H1061   1.045       .  S
C1052      C1053   1.394       .  A
C1053      H1059   1.082       .  S
N1054      C1055   1.355       .  A
N1054      H1062   1.044       .  S
C1055      C1056   1.396       .  A
C1056      H1060   1.082       .  S
C1063      N1069   1.343       .  A
C1063      C1068   1.385   1_545  A
C1063      C1064   1.403       .  A
C1064      C1065   1.403       .  A
C1064      H1075   1.082       .  S
C1065      C1074   1.378       .  A
C1065      C1066   1.384   1_545  A
C1066      N1072   1.343       .  A
C1066      C1067   1.403       .  A
C1067      C1068   1.402       .  A
C1067      H1076   1.082       .  S
C1068      C1071   1.377       .  A
N1069      C1070   1.356   1_545  A
N1069      H1079   1.045       .  S
C1070      C1071   1.395       .  A
C1071      H1077   1.082       .  S
N1072      C1073   1.356   1_565  A
N1072      H1080   1.044       .  S
C1073      C1074   1.396       .  A
C1074      H1078   1.082       .  S
C1081      N1087   1.343       .  A
C1081      C1086   1.385       .  A
C1081      C1082   1.403       .  A
C1082      C1083   1.403       .  A
C1082      H1093   1.082       .  S
C1083      C1092   1.377       .  A
C1083      C1084   1.385       .  A
C1084      N1090   1.341       .  A
C1084      C1085   1.401       .  A
C1085      C1086   1.400       .  A
C1085      H1094   1.082       .  S
C1086      C1089   1.374       .  A
N1087      C1088   1.355       .  A
N1087      H1097   1.045       .  S
C1088      C1089   1.393       .  A
C1089      H1095   1.082       .  S
N1090      C1091   1.355       .  A
N1090      H1098   1.044       .  S
C1091      C1092   1.396       .  A
C1092      H1096   1.082       .  S
C1099      N1105   1.345       .  A
C1099      C1104   1.384       .  A
C1099      C1100   1.405       .  A
C1100      C1101   1.404       .  A
C1100      H1111   1.082       .  S
C1101      C1110   1.380       .  A
C1101      C1102   1.384       .  A
C1102      N1108   1.345       .  A
C1102      C1103   1.404       .  A
C1103      C1104   1.404       .  A
C1103      H1112   1.082       .  S
C1104      C1107   1.379       .  A
N1105      C1106   1.357       .  A
N1105      H1115   1.045       .  S
C1106      C1107   1.396       .  A
C1107      H1113   1.082       .  S
N1108      C1109   1.356       .  A
N1108      H1116   1.044       .  S
C1109      C1110   1.396       .  A
C1110      H1114   1.082       .  S
C1117      N1123   1.343       .  A
C1117      C1122   1.384       .  A
C1117      C1118   1.404       .  A
C1118      C1119   1.403       .  A
C1118      H1129   1.082       .  S
C1119      C1128   1.379       .  A
C1119      C1120   1.384       .  A
C1120      N1126   1.344       .  A
C1120      C1121   1.404       .  A
C1121      C1122   1.403       .  A
C1121      H1130   1.082       .  S
C1122      C1125   1.380   1_455  A
N1123      C1124   1.356   1_455  A
N1123      H1133   1.045       .  S
C1124      C1125   1.396       .  A
C1125      H1131   1.082       .  S
N1126      C1127   1.356       .  A
N1126      H1134   1.044       .  S
C1127      C1128   1.396       .  A
C1128      H1132   1.082       .  S
C1135      N1141   1.344       .  A
C1135      C1140   1.385       .  A
C1135      C1136   1.404       .  A
C1136      C1137   1.403       .  A
C1136      H1147   1.082       .  S
C1137      C1146   1.378       .  A
C1137      C1138   1.384       .  A
C1138      N1144   1.343       .  A
C1138      C1139   1.403       .  A
C1139      C1140   1.403       .  A
C1139      H1148   1.082       .  S
C1140      C1143   1.378       .  A
N1141      C1142   1.356       .  A
N1141      H1151   1.045       .  S
C1142      C1143   1.395       .  A
C1143      H1149   1.082       .  S
N1144      C1145   1.356       .  A
N1144      H1152   1.045       .  S
C1145      C1146   1.395       .  A
C1146      H1150   1.082       .  S
C1153      N1159   1.343       .  A
C1153      C1158   1.385       .  A
C1153      C1154   1.403       .  A
C1154      C1155   1.402       .  A
C1154      H1165   1.082       .  S
C1155      C1164   1.376       .  A
C1155      C1156   1.384       .  A
C1156      N1162   1.344   1_545  A
C1156      C1157   1.404       .  A
C1157      C1158   1.403       .  A
C1157      H1166   1.082       .  S
C1158      C1161   1.378       .  A
N1159      C1160   1.355       .  A
N1159      H1169   1.044       .  S
C1160      C1161   1.395       .  A
C1161      H1167   1.082       .  S
N1162      C1163   1.356       .  A
N1162      H1170   1.045       .  S
C1163      C1164   1.395   1_565  A
C1164      H1168   1.082       .  S
C1171      N1177   1.344       .  A
C1171      C1176   1.384   1_455  A
C1171      C1172   1.403       .  A
C1172      C1173   1.403       .  A
C1172      H1183   1.082       .  S
C1173      C1182   1.378       .  A
C1173      C1174   1.384   1_455  A
C1174      N1180   1.344       .  A
C1174      C1175   1.404       .  A
C1175      C1176   1.403       .  A
C1175      H1184   1.082       .  S
C1176      C1179   1.378       .  A
N1177      C1178   1.356       .  A
N1177      H1187   1.045       .  S
C1178      C1179   1.396   1_455  A
C1179      H1185   1.082       .  S
N1180      C1181   1.356       .  A
N1180      H1188   1.044       .  S
C1181      C1182   1.396   1_655  A
C1182      H1186   1.082       .  S
C1189      N1195   1.344       .  A
C1189      C1194   1.384       .  A
C1189      C1190   1.404       .  A
C1190      C1191   1.403       .  A
C1190      H1201   1.082       .  S
C1191      C1200   1.378       .  A
C1191      C1192   1.384       .  A
C1192      N1198   1.344       .  A
C1192      C1193   1.403       .  A
C1193      C1194   1.402       .  A
C1193      H1202   1.082       .  S
C1194      C1197   1.377       .  A
N1195      C1196   1.356       .  A
N1195      H1205   1.045       .  S
C1196      C1197   1.395       .  A
C1197      H1203   1.082       .  S
N1198      C1199   1.356       .  A
N1198      H1206   1.044       .  S
C1199      C1200   1.395       .  A
C1200      H1204   1.082       .  S
