geometry optimzed in LAMMPS
_audit_creation_date              2020-11-30 
_audit_creation_method            'lammps2cif' 
_symmetry_space_group_name_H-M    'P1' 
_symmetry_Int_Tables_number       1 
_symmetry_cell_setting            triclinic 
loop_ 
_symmetry_equiv_pos_as_xyz 
  x,y,z 
_cell_length_a                    28.29458119 
_cell_length_b                    29.016945221217185 
_cell_length_c                    40.58858880044492 
_cell_angle_alpha                 89.24800460492399 
_cell_angle_beta                  90.89910176751059 
_cell_angle_gamma                 90.33131910318738 
loop_ 
_atom_site_label 
_atom_site_type_symbol 
_atom_site_fract_x 
_atom_site_fract_y 
_atom_site_fract_z 
_atom_site_charge 
C1          C  0.95647988  0.38814879  0.08930016    -0.02100
C2          C  0.66994933  0.12779166  0.34767518    -0.02100
O3          O  0.68657837  0.17070638  0.18316989    -0.78100
C4          C  0.77553824  0.22492015  0.10457038     0.83000
O5          O  0.58507988  0.19416602  0.08616557    -0.79200
O6          O  0.72231848  0.13201205  0.02977325    -0.80700
O7          O  0.74030750  0.03355678  0.12445066    -0.80500
O8          O  0.68572134  0.09386489  0.18555922    -0.79100
Zn9        Zn  0.68425449  0.18732640  0.13426784     1.55700
O10         O  0.77981736  0.07155649  0.08539554    -0.80500
Cd11       Cd  0.68324817  0.07575062  0.13529271     1.59700
Cd12       Cd  0.62426638  0.13400240  0.07679622     1.59600
O13         O  0.62411921  0.03541621  0.12460787    -0.80500
O14         O  0.68240199  0.13258189  0.10650947    -1.91000
Cd15       Cd  0.74035374  0.13153462  0.07870618     1.59900
O16         O  0.58364771  0.07349642  0.08515608    -0.80500
O17         O  0.78119133  0.18993663  0.08649367    -0.79100
C18         C  0.59154859  0.22667257  0.10686216     0.83400
C19         C  0.68689310  0.13305438  0.19972254     0.83100
O20         O  0.74024748  0.22729290  0.12356006    -0.78100
C21         C  0.77404214  0.03631679  0.10400099     0.83900
O22         O  0.62730892  0.22731898  0.12622614    -0.78200
C23         C  0.58949512  0.03826253  0.10414868     0.84000
C24         C  0.68389882  0.13285594  0.01316417     0.84400
O25         O  0.64353472  0.13444203  0.02682078    -0.80600
C26         C  0.72372363  0.13054075  0.37137203    -0.02100
O27         O  0.95552175  0.34336225  0.43043156    -0.78100
C28         C  0.84839070  0.29665975  0.35839755     0.83000
O29         O  0.04425267  0.32874942  0.32803953    -0.79200
O30         O  0.90666922  0.38098562  0.27781473    -0.80700
O31         O  0.88908564  0.47673448  0.37375084    -0.80500
O32         O  0.94972992  0.41989743  0.43085551    -0.79100
Zn33       Zn  0.94999321  0.32654985  0.38100558     1.55700
O34         O  0.85141170  0.44023104  0.33324958    -0.80500
Cd35       Cd  0.94880862  0.43820432  0.38219151     1.59700
Cd36       Cd  0.00535093  0.38866012  0.32442117     1.59600
O37         O  0.00590317  0.48060483  0.37402218    -0.80500
O38         O  0.94930330  0.38268758  0.35412399    -1.91000
Cd39       Cd  0.89040094  0.38240699  0.32659909     1.59900
O40         O  0.04849547  0.44519856  0.33625334    -0.80500
O41         O  0.84458703  0.32949501  0.33762729    -0.79100
C42         C  0.03892364  0.29164645  0.34477114     0.83400
C43         C  0.95229083  0.38132818  0.44598372     0.83100
O44         O  0.88622519  0.29173021  0.37584989    -0.78100
C45         C  0.85470230  0.47319536  0.35333260     0.83900
O46         O  0.00530763  0.28614819  0.36535190    -0.78200
C47         C  0.04205377  0.47849891  0.35588756     0.84000
C48         C  0.94377370  0.38922539  0.26131301     0.84400
O49         O  0.98377413  0.39590603  0.27538451    -0.80600
C50         C  0.90891676  0.38555475  0.11649651    -0.02100
C51         C  0.44487906  0.37613997  0.11636099    -0.02100
C52         C  0.16795880  0.13317597  0.35888520    -0.02100
O53         O  0.17025566  0.07257296  0.02330777    -0.78100
C54         C  0.27406133  0.04510159  0.10181152     0.83000
O55         O  0.08118399  0.07855251  0.12527845    -0.79200
O56         O  0.22868725  0.14871118  0.16785246    -0.80700
O57         O  0.22213690  0.22610035  0.05986396    -0.80500
O58         O  0.15951437  0.14794876  0.01644131    -0.79100
Zn59       Zn  0.17618684  0.06948287  0.07403398     1.55700
O60         O  0.27017864  0.19931479  0.09964023    -0.80500
Cd61       Cd  0.16697511  0.17859175  0.06083793     1.59700
Cd62       Cd  0.12409852  0.13630135  0.12749690     1.59600
O63         O  0.10633197  0.21558711  0.06746498    -0.80500
O64         O  0.17610443  0.13001092  0.09491167    -1.91000
Cd65       Cd  0.23759920  0.14095601  0.11789062     1.59900
O66         O  0.08134000  0.19275969  0.11637532    -0.80500
O67         O  0.28158183  0.08500647  0.11349974    -0.79100
C68         C  0.08535739  0.04144994  0.10919644     0.83400
C69         C  0.16179348  0.10753337  0.00483641     0.83100
O70         O  0.23549733  0.03436828  0.08706501    -0.78100
C71         C  0.25957533  0.22926928  0.07752965     0.83900
O72         O  0.11990388  0.03431523  0.09018538    -0.78200
C73         C  0.07752376  0.21896987  0.09105593     0.84000
C74         C  0.19359757  0.14581972  0.18694979     0.84400
O75         O  0.15159215  0.14116322  0.17535735    -0.80600
C76         C  0.21745004  0.12715306  0.33317736    -0.02100
O77         O  0.39619333  0.28446864  0.32952823    -0.78100
C78         C  0.45013472  0.38744742  0.26440784     0.83000
O79         O  0.54038087  0.32053950  0.38447955    -0.79200
O80         O  0.50383367  0.47206416  0.34014647    -0.80700
O81         O  0.33974468  0.43204282  0.36976883    -0.80500
O82         O  0.34515672  0.31475498  0.36441257    -0.79100
Zn83       Zn  0.45231564  0.32698860  0.32653882     1.55700
O84         O  0.38752656  0.47657664  0.33988174    -0.80500
Cd85       Cd  0.38154009  0.37379762  0.37954106     1.59700
Cd86       Cd  0.49748483  0.37835406  0.38924902     1.59600
O87         O  0.39353772  0.37258683  0.43044369    -0.80500
O88         O  0.44374558  0.37765532  0.35634722    -1.91000
Cd89       Cd  0.44411720  0.43570708  0.32996923     1.59900
O90         O  0.47117579  0.38105409  0.43651685    -0.80500
O91         O  0.44389137  0.42452140  0.27999626    -0.79100
C92         C  0.54187123  0.29108871  0.36145976     0.83400
C93         C  0.35708268  0.28313838  0.34460918     0.83100
O94         O  0.45530401  0.34873456  0.27912482    -0.78100
C95         C  0.34881691  0.46994052  0.35476009     0.83900
O96         O  0.51159299  0.29084094  0.33785919    -0.78200
C97         C  0.43021492  0.37767004  0.44892001     0.84000
C98         C  0.53819286  0.46814776  0.36049270     0.84400
O99         O  0.54093866  0.43529010  0.38154652    -0.80600
C100        C  0.39704849  0.38298270  0.08983710    -0.02100
C101        C  0.37824094  0.38305220  0.49759072    -0.05400
C102        C  0.42421234  0.38083317  0.48565314     0.00600
C103        C  0.46185642  0.38201860  0.50888231    -0.08000
C104        C  0.45125137  0.38399985  0.54263014    -0.05400
C105        C  0.40596297  0.38491315  0.05079920     0.00500
C106        C  0.36724432  0.38861765  0.53127920    -0.07900
C107        C  0.31882864  0.40350880  0.02419369     0.62500
H108        H  0.34978977  0.38031124  0.47962083     0.13200
H109        H  0.48097725  0.38756849  0.05507267     0.13200
C110        C  0.51362214  0.38015859  0.49889894     0.62700
F111        F  0.28962458  0.40686545  0.50923765    -0.22500
F112        F  0.30692876  0.43020715  0.05015150    -0.19800
F113        F  0.28654466  0.36786730  0.02097779    -0.19500
F114        F  0.52470109  0.41865550  0.48002430    -0.19500
F115        F  0.52178330  0.34055308  0.48130264    -0.19900
F116        F  0.54439365  0.37958631  0.52571180    -0.22500
C117        C  0.30332316  0.16364750  0.33712034    -0.05400
C118        C  0.25346582  0.17179741  0.33252644     0.00600
C119        C  0.24521356  0.21876016  0.31974142    -0.08000
C120        C  0.27952919  0.25355757  0.32593990    -0.05400
C121        C  0.32427019  0.24410943  0.33853668     0.00500
C122        C  0.33811466  0.19800689  0.34093594    -0.07900
C123        C  0.38985109  0.18492438  0.34601323     0.62500
H124        H  0.31752554  0.12983181  0.33473449     0.13200
H125        H  0.27253453  0.28906626  0.31873752     0.13200
C126        C  0.20899672  0.23636855  0.29424595     0.62700
F127        F  0.39608967  0.13785307  0.34956509    -0.22500
F128        F  0.40792589  0.20574435  0.37401496    -0.19800
F129        F  0.41551709  0.19911495  0.31896694    -0.19500
F130        F  0.19154779  0.27886080  0.30313131    -0.19500
F131        F  0.17101610  0.20900685  0.28931729    -0.19900
F132        F  0.23119774  0.24194735  0.26431054    -0.22500
C133        C  0.31070009  0.03529429  0.37496301    -0.05400
C134        C  0.31300844  0.00256959  0.35046192     0.00600
C135        C  0.26787193  0.50441410  0.34371806    -0.08000
C136        C  0.25440847  0.04565395  0.31963745    -0.05400
C137        C  0.25001359  0.08180048  0.34351471     0.00500
C138        C  0.28166154  0.07496185  0.37244118    -0.07900
C139        C  0.29351263  0.10762530  0.40048492     0.62500
H140        H  0.33459528  0.03091225  0.39596648     0.13200
H141        H  0.23366422  0.04602826  0.29748546     0.13200
C142        C  0.24754144  0.45790744  0.33369702     0.62700
F143        F  0.28800424  0.08515529  0.43043087    -0.22500
F144        F  0.26716636  0.14644241  0.40026488    -0.19800
F145        F  0.34040415  0.12088621  0.39892146    -0.19500
F146        F  0.24578102  0.42882061  0.36091827    -0.19500
F147        F  0.27563317  0.43837007  0.31011136    -0.19900
F148        F  0.20230095  0.46159968  0.32053085    -0.22500
C149        C  0.16186614  0.14591585  0.24383410    -0.05400
C150        C  0.20159975  0.14440138  0.22358728     0.00600
C151        C  0.24581878  0.13383958  0.23884405    -0.08000
C152        C  0.24707428  0.12545065  0.27305280    -0.05400
C153        C  0.20619464  0.12307879  0.29336797     0.00500
C154        C  0.16212071  0.12158722  0.27422664    -0.07900
C155        C  0.13187424  0.07757381  0.26918338     0.62500
H156        H  0.12779957  0.15362955  0.23247867     0.13200
H157        H  0.28118264  0.12023848  0.28443628     0.13200
C158        C  0.29213612  0.13263890  0.22014355     0.62700
F159        F  0.11615191  0.07213612  0.23679438    -0.22500
F160        F  0.09140037  0.07868497  0.28755745    -0.19800
F161        F  0.15764336  0.03845335  0.27579896    -0.19500
F162        F  0.29977343  0.17470208  0.20462281    -0.19500
F163        F  0.29063696  0.09788230  0.19715084    -0.19900
F164        F  0.33075572  0.12429705  0.24071816    -0.22500
C165        C  0.33944526  0.26196148  0.07419452    -0.05400
C166        C  0.29104927  0.26990913  0.07441517     0.00600
C167        C  0.27535180  0.31437945  0.08182989    -0.08000
C168        C  0.30947712  0.34895724  0.08819703    -0.05400
C169        C  0.35913722  0.34042858  0.09264069     0.00500
C170        C  0.36940787  0.29115249  0.09249078    -0.07900
C171        C  0.39195733  0.26222149  0.12044544     0.62500
H172        H  0.35069560  0.22674222  0.07020487     0.13200
H173        H  0.29508782  0.38210193  0.09124661     0.13200
C174        C  0.22284424  0.32532968  0.08298122     0.62700
F175        F  0.43021881  0.23808962  0.10930234    -0.22500
F176        F  0.35997445  0.22990368  0.13249239    -0.19800
F177        F  0.40500409  0.28712384  0.14706773    -0.19500
F178        F  0.20157331  0.29853358  0.10705118    -0.19500
F179        F  0.20177823  0.31629426  0.05276355    -0.19900
F180        F  0.21467547  0.37108391  0.09008122    -0.22500
C181        C  0.34757148  0.51125272  0.07987980    -0.05400
C182        C  0.31190840  0.01079302  0.10429472     0.00600
C183        C  0.30785082  0.47138305  0.12393791    -0.08000
C184        C  0.34066181  0.43561445  0.12111422    -0.05400
C185        C  0.37463379  0.43282776  0.09608956     0.00500
C186        C  0.38106192  0.47574858  0.07671958    -0.07900
C187        C  0.41795139  0.48828376  0.05053454     0.62500
H188        H  0.34845866  0.54122681  0.06362597     0.13200
H189        H  0.33642176  0.40707718  0.13716757     0.13200
C190        C  0.28658400  0.97852358  0.16099157     0.62700
F191        F  0.42618147  0.53545167  0.04958822    -0.22500
F192        F  0.40161648  0.47603287  0.01963111    -0.19800
F193        F  0.46151810  0.46983417  0.05634846    -0.19500
F194        F  0.31583681  0.98183710  0.18850780    -0.19500
F195        F  0.26141175  0.93763354  0.16284993    -0.19900
F196        F  0.25475277  0.01439914  0.16166328    -0.22500
C197        C  0.15749180  0.16473199  0.41834171    -0.05400
C198        C  0.17567392  0.12874180  0.39883852     0.00600
C199        C  0.18908697  0.08836991  0.41933763    -0.08000
C200        C  0.19731944  0.09449029  0.45383392    -0.05400
C201        C  0.18231629  0.13321659  0.47059229     0.00500
C202        C  0.15880702  0.16774077  0.45259966    -0.07900
C203        C  0.13048971  0.20571125  0.46927092     0.62500
H204        H  0.13465065  0.18891840  0.40790101     0.13200
H205        H  0.21160490  0.06691774  0.46910073     0.13200
C206        C  0.18297898  0.03699759  0.41087817     0.62700
F207        F  0.10138207  0.22983355  0.44745966    -0.22500
F208        F  0.07453754  0.18935106  0.98071057    -0.19800
F209        F  0.06640998  0.11543482  0.99741236    -0.19500
F210        F  0.20167819  0.00796522  0.43508403    -0.19500
F211        F  0.20465938  0.02399632  0.38278108    -0.19900
F212        F  0.13537904  0.02672467  0.40879662    -0.22500
C213        C  0.48092920  0.38745643  0.17439571    -0.05400
C214        C  0.43681829  0.37739824  0.15686225     0.00600
C215        C  0.39698264  0.36923372  0.18011097    -0.08000
C216        C  0.40384054  0.38034590  0.21383270    -0.05400
C217        C  0.44746909  0.38841068  0.22819480     0.00500
C218        C  0.48706927  0.39116186  0.20858260    -0.07900
C219        C  0.53598422  0.39731467  0.22403662     0.62500
H220        H  0.51347900  0.38834837  0.16105874     0.13200
H221        H  0.37472530  0.37778944  0.23100322     0.13200
C222        C  0.34781867  0.34531517  0.17883656     0.62700
F223        F  0.57108776  0.40011630  0.20069770    -0.22500
F224        F  0.54594051  0.36024846  0.24473469    -0.19800
F225        F  0.53732252  0.43737837  0.24213082    -0.19500
F226        F  0.34853169  0.30765077  0.20027623    -0.19500
F227        F  0.33171329  0.32881822  0.14995297    -0.19900
F228        F  0.31352840  0.37517991  0.18970042    -0.22500
C229        C  0.04899630  0.05694255  0.36198220    -0.05400
C230        C  0.07559770  0.51767267  0.35695647     0.00600
C231        C  0.12066163  0.51496713  0.37143513    -0.08000
C232        C  0.14004306  0.05202728  0.34071693    -0.05400
C233        C  0.12770430  0.09382369  0.35541964     0.00500
C234        C  0.07944706  0.09457113  0.36856312    -0.07900
C235        C  0.05827870  0.12776432  0.39375464     0.62500
H236        H  0.01257512  0.05744227  0.36960008     0.13200
H237        H  0.17250622  0.04910843  0.33112536     0.13200
C238        C  0.13738379  0.47047184  0.38778181     0.62700
F239        F  0.07659861  0.11755983  0.42465972    -0.22500
F240        F  0.00968309  0.12295961  0.39623941    -0.19800
F241        F  0.06449027  0.17338399  0.38628497    -0.19500
F242        F  0.13750077  0.43534723  0.36511522    -0.19500
F243        F  0.10705818  0.45858819  0.41294518    -0.19900
F244        F  0.18245128  0.47466121  0.40119166    -0.22500
C245        C  0.11846761  0.26316632  0.35728345    -0.05400
C246        C  0.07525688  0.25547865  0.34183831     0.00600
C247        C  0.06860142  0.21489338  0.32393849    -0.08000
C248        C  0.10280652  0.17976347  0.32694987    -0.05400
C249        C  0.14330511  0.18199155  0.34851145     0.00500
C250        C  0.15335837  0.22888227  0.36079023    -0.07900
C251        C  0.19446806  0.24691657  0.38223289     0.62500
H252        H  0.12393652  0.29650612  0.36866978     0.13200
H253        H  0.09548513  0.14874777  0.31396905     0.13200
C254        C  0.02421704  0.20779191  0.30320768     0.62700
F255        F  0.21364366  0.28607320  0.36790973    -0.22500
F256        F  0.22963504  0.21592120  0.38753017    -0.19800
F257        F  0.17840340  0.26020421  0.41266501    -0.19500
F258        F  0.01773604  0.24506392  0.28207569    -0.19500
F259        F  0.98564980  0.20375632  0.32357011    -0.19900
F260        F  0.02666584  0.16848381  0.28435153    -0.22500
C261        C  0.89421746  0.40396424  0.21244182    -0.05400
C262        C  0.93854040  0.39160544  0.22482014     0.00600
C263        C  0.97367758  0.37846261  0.20264141    -0.08000
C264        C  0.96359536  0.38107598  0.16845340    -0.05400
C265        C  0.91790251  0.38970237  0.15504331     0.00500
C266        C  0.88105303  0.40024840  0.17915622    -0.07900
C267        C  0.82702319  0.40887341  0.17473709     0.62500
H268        H  0.86783446  0.41479475  0.22982881     0.13200
H269        H  0.99146108  0.37462580  0.15216185     0.13200
C270        C  0.02047886  0.35887012  0.21497862     0.62700
F271        F  0.80243335  0.38116820  0.19661847    -0.22500
F272        F  0.80730052  0.40060289  0.14437916    -0.19800
F273        F  0.81658097  0.45382996  0.18260545    -0.19500
F274        F  0.01290448  0.32607949  0.23940268    -0.19500
F275        F  0.04870412  0.39392877  0.22722276    -0.19900
F276        F  0.04449303  0.33713412  0.19040222    -0.22500
C277        C  0.74422795  0.04521261  0.35994494    -0.05400
C278        C  0.76119511  0.09135820  0.36090273     0.00600
C279        C  0.81160160  0.09574729  0.35202610    -0.08000
C280        C  0.83955153  0.05551921  0.35239837    -0.05400
C281        C  0.81933638  0.51007801  0.35176062     0.00500
C282        C  0.77056865  0.50245143  0.34722606    -0.07900
C283        C  0.74978286  0.45396224  0.34522659     0.62500
H284        H  0.71001098  0.03743893  0.36707623     0.13200
H285        H  0.87772165  0.05778772  0.35121224     0.13200
C286        C  0.83984544  0.13804330  0.33959798     0.62700
F287        F  0.70085753  0.45384093  0.34566555    -0.22500
F288        F  0.76569299  0.42768094  0.37181243    -0.19800
F289        F  0.76317431  0.43357476  0.31627273    -0.19500
F290        F  0.85110714  0.16746811  0.36467517    -0.19500
F291        F  0.81701855  0.16031353  0.31401880    -0.19900
F292        F  0.88292991  0.12608293  0.32636194    -0.22500
C293        C  0.75200796  0.20675707  0.34152345    -0.05400
C294        C  0.75174172  0.17976866  0.37076470     0.00600
C295        C  0.78036803  0.19950371  0.39781222    -0.08000
C296        C  0.80289881  0.24273973  0.39337914    -0.05400
C297        C  0.80843989  0.26302546  0.36250016     0.00500
C298        C  0.78004261  0.24661071  0.33628767    -0.07900
C299        C  0.78139724  0.26873852  0.30204367     0.62500
H300        H  0.73628489  0.19320490  0.32025420     0.13200
H301        H  0.82212256  0.25839703  0.41369815     0.13200
C302        C  0.79920623  0.17387722  0.42854124     0.62700
F303        F  0.75174518  0.24665980  0.27974530    -0.22500
F304        F  0.82680766  0.26708535  0.28998496    -0.19800
F305        F  0.76705600  0.31412828  0.30357069    -0.19500
F306        F  0.84216528  0.19153302  0.43967671    -0.19500
F307        F  0.80837882  0.12906031  0.42147616    -0.19900
F308        F  0.76849479  0.17697886  0.45441069    -0.22500
C309        C  0.52684317  0.41488708  0.10041925    -0.06200
C310        C  0.47959472  0.42162314  0.11176355     0.00600
C311        C  0.47228633  0.46893331  0.12391856    -0.08000
C312        C  0.51007429  0.00841884  0.11632522    -0.05400
C313        C  0.55419590  0.99984755  0.10376442     0.00500
C314        C  0.56071843  0.45038422  0.09567566    -0.07900
C315        C  0.60966891  0.43874011  0.08348634     0.62500
H316        H  0.53898523  0.38090939  0.09561863     0.13200
H317        H  0.50303252  0.04381773  0.12311666     0.13200
C318        C  0.43785456  0.48802346  0.14930644     0.62700
F319        F  0.61283275  0.39340229  0.07356603    -0.22500
F320        F  0.64257187  0.44547112  0.10851693    -0.19800
F321        F  0.62069325  0.46679693  0.05683479    -0.19500
F322        F  0.40576189  0.45845939  0.16244316    -0.19500
F323        F  0.41311521  0.52470826  0.13559681    -0.19900
F324        F  0.47304413  0.01297991  0.17623228    -0.22500
C325        C  0.54029201  0.28696355  0.08115580    -0.05400
C326        C  0.55560069  0.26373237  0.10950471     0.00600
C327        C  0.53162607  0.27132239  0.13884710    -0.08000
C328        C  0.49449395  0.30335488  0.13866402    -0.05400
C329        C  0.47542278  0.32744763  0.11003177     0.00500
C330        C  0.49540473  0.30864014  0.07956341    -0.07900
C331        C  0.46970331  0.28689909  0.04958024     0.62500
H332        H  0.55798859  0.27821638  0.05853914     0.13200
H333        H  0.47939267  0.30703783  0.16237430     0.13200
C334        C  0.54534277  0.24581190  0.17068316     0.62700
F335        F  0.47001443  0.23928361  0.05291776    -0.22500
F336        F  0.49394740  0.29743802  0.02110426    -0.19800
F337        F  0.42388740  0.29870750  0.04405996    -0.19500
F338        F  0.59013318  0.25938721  0.18078999    -0.19500
F339        F  0.54484340  0.19876380  0.16557144    -0.19900
F340        F  0.51475930  0.25453335  0.19614255    -0.22500
C341        C  0.69867819  0.09140984  0.46579226    -0.05400
C342        C  0.67481235  0.12969430  0.47679584     0.00600
C343        C  0.66734145  0.16675721  0.45492851    -0.08000
C344        C  0.68396355  0.16349177  0.42233993    -0.05400
C345        C  0.71000642  0.12529086  0.40986809     0.00500
C346        C  0.72047934  0.08876553  0.43475239    -0.07900
C347        C  0.75031911  0.04439872  0.43294442     0.62500
H348        H  0.70173246  0.06318980  0.48346576     0.13200
H349        H  0.67979568  0.19375871  0.40700395     0.13200
C350        C  0.64293264  0.21002916  0.46627522     0.62700
F351        F  0.76579153  0.02975275  0.46394546    -0.22500
F352        F  0.79154559  0.04928916  0.41602140    -0.19800
F353        F  0.72296088  0.00887234  0.42057108    -0.19500
F354        F  0.69094337  0.22873349  0.98975996    -0.19500
F355        F  0.61679668  0.20271267  0.98030709    -0.19900
F356        F  0.63900085  0.24288614  0.44135771    -0.22500
C357        C  0.84450414  0.00054877  0.12785628    -0.05400
C358        C  0.80938786  0.99882975  0.10390363     0.00600
C359        C  0.80445673  0.45854190  0.07895450    -0.08000
C360        C  0.83865111  0.42415048  0.08567227    -0.05400
C361        C  0.87688423  0.42969267  0.10859193     0.00500
C362        C  0.87863219  0.47442069  0.12570438    -0.07900
C363        C  0.91454841  0.49399387  0.15129313     0.62500
H364        H  0.84480376  0.03023260  0.14391446     0.13200
H365        H  0.83286613  0.39131477  0.07459829     0.13200
C366        C  0.76595889  0.45109095  0.05316011     0.62700
F367        F  0.93012509  0.02527146  0.15320945    -0.22500
F368        F  0.95612642  0.47059632  0.15553770    -0.19800
F369        F  0.89378536  0.49749389  0.18170280    -0.19500
F370        F  0.76946281  0.48472504  0.02883437    -0.19500
F371        F  0.72215503  0.45395555  0.06751120    -0.19900
F372        F  0.76934256  0.40845892  0.03848924    -0.22500
C373        C  0.80584213  0.29817968  0.12836106    -0.05400
C374        C  0.81091941  0.26346071  0.10478916     0.00600
C375        C  0.85306939  0.26429267  0.08608264    -0.08000
C376        C  0.88439249  0.30203397  0.09026390    -0.05400
C377        C  0.87876150  0.33669327  0.11455027     0.00500
C378        C  0.84711229  0.32013839  0.13953736    -0.07900
C379        C  0.86487033  0.29394477  0.17059283     0.62500
H380        H  0.77655662  0.29607929  0.14521578     0.13200
H381        H  0.91317346  0.30293269  0.07386529     0.13200
C382        C  0.86626976  0.22620537  0.06246792     0.62700
F383        F  0.86570545  0.24699530  0.16475582    -0.22500
F384        F  0.83456811  0.30065416  0.19641543    -0.19800
F385        F  0.90947316  0.30587983  0.18100831    -0.19500
F386        F  0.83137752  0.22108198  0.03854022    -0.19500
F387        F  0.87210939  0.18526818  0.07987415    -0.19900
F388        F  0.90827314  0.23534833  0.04649309    -0.22500
C389        C  0.58889506  0.01979212  0.33006055    -0.05400
C390        C  0.57689936  0.00421312  0.36144084     0.00600
C391        C  0.60205097  0.02153210  0.38875080    -0.08000
C392        C  0.63262743  0.05948017  0.38338902    -0.05400
C393        C  0.64331176  0.07837620  0.35180120     0.00500
C394        C  0.62860224  0.04780488  0.32526040    -0.07900
C395        C  0.65814473  0.03013603  0.29666474     0.62500
H396        H  0.58031438  0.48580258  0.30661156     0.13200
H397        H  0.64661475  0.07430238  0.40462690     0.13200
C398        C  0.59333701  0.00346113  0.42347519     0.62700
F399        F  0.64704799  0.48505412  0.27673617    -0.22500
F400        F  0.70556806  0.03829530  0.30023397    -0.19800
F401        F  0.64170185  0.04816147  0.26706197    -0.19500
F402        F  0.60790614  0.95815171  0.42613441    -0.19500
F403        F  0.54571220  0.00607124  0.43039956    -0.19900
F404        F  0.61787207  0.02833529  0.44707525    -0.22500
C405        C  0.64373164  0.21330040  0.33992048    -0.05400
C406        C  0.63479699  0.17078158  0.35732077     0.00600
C407        C  0.59244524  0.17332821  0.37869715    -0.08000
C408        C  0.56916834  0.21634318  0.38194966    -0.05400
C409        C  0.57827424  0.25462427  0.36249871     0.00500
C410        C  0.61675729  0.25374226  0.34147720    -0.07900
C411        C  0.63132623  0.29445406  0.31978737     0.62500
H412        H  0.66872041  0.21493570  0.32069448     0.13200
H413        H  0.54016015  0.22062655  0.39866205     0.13200
C414        C  0.56549305  0.13487106  0.39747757     0.62700
F415        F  0.67661787  0.30789736  0.32871422    -0.22500
F416        F  0.60235882  0.33237979  0.32240410    -0.19800
F417        F  0.63104892  0.28125396  0.28715093    -0.19500
F418        F  0.59117437  0.11889924  0.42416291    -0.19500
F419        F  0.55133214  0.10015573  0.37686585    -0.19900
F420        F  0.52336747  0.14943794  0.41080691    -0.22500
C421        C  0.64321396  0.14734293  0.25065501    -0.05400
C422        C  0.68554612  0.13521981  0.23638026     0.00600
C423        C  0.72386367  0.12341505  0.25710349    -0.08000
C424        C  0.71820644  0.12458453  0.29169781    -0.05400
C425        C  0.67446633  0.13217046  0.30768144     0.00500
C426        C  0.63498621  0.14181413  0.28478204    -0.07900
C427        C  0.58231118  0.14462861  0.29216775     0.62500
H428        H  0.61426141  0.15695197  0.23412536     0.13200
H429        H  0.74836349  0.11624041  0.30595327     0.13200
C430        C  0.77058809  0.10925294  0.24245255     0.62700
F431        F  0.55649516  0.11970033  0.26911313    -0.22500
F432        F  0.56787477  0.19003158  0.29017661    -0.19800
F433        F  0.57010766  0.12657670  0.32190640    -0.19500
F434        F  0.78772503  0.14467501  0.22279191    -0.19500
F435        F  0.76398964  0.07037952  0.22355091    -0.19900
F436        F  0.80438597  0.09897695  0.26637019    -0.22500
C437        C  0.98049125  0.30544906  0.11162356    -0.05400
C438        C  0.98682093  0.34156896  0.08754151     0.00600
C439        C  0.02305746  0.33215109  0.06341343    -0.08000
C440        C  0.04486245  0.28859479  0.06330753    -0.05400
C441        C  0.04108257  0.25645453  0.08904633     0.00500
C442        C  0.00633453  0.26386708  0.11288913    -0.07900
C443        C  0.99721211  0.22894805  0.14037198     0.62500
H444        H  0.95732717  0.31044251  0.13157140     0.13200
H445        H  0.06975899  0.28160019  0.04397731     0.13200
C446        C  0.04644297  0.36477781  0.03851672     0.62700
F447        F  0.95713123  0.23881293  0.15762385    -0.22500
F448        F  0.03477783  0.22873131  0.16259883    -0.19800
F449        F  0.99082655  0.18552209  0.12729637    -0.19500
F450        F  0.09515628  0.36033381  0.04048112    -0.19500
F451        F  0.03822432  0.41061048  0.04296447    -0.19900
F452        F  0.03286546  0.35207227  0.00708826    -0.22500
C453        C  0.97916843  0.47405733  0.09283153    -0.05400
C454        C  0.99431630  0.42811642  0.09898302     0.00600
C455        C  0.04466824  0.42472681  0.10935161    -0.08000
C456        C  0.07337966  0.46456292  0.10750482    -0.05400
C457        C  0.04990652  0.00452700  0.11246185     0.00500
C458        C  0.00298636  0.00952299  0.10230876    -0.07900
C459        C  0.98294012  0.05720417  0.09470064     0.62500
H460        H  0.94350277  0.47957444  0.08682496     0.13200
H461        H  0.11111800  0.46236237  0.11287180     0.13200
C462        C  0.07630777  0.38559995  0.12318319     0.62700
F463        F  0.93572754  0.05538734  0.08530464    -0.22500
F464        F  0.00799606  0.07813751  0.06955693    -0.19800
F465        F  0.98658605  0.08428283  0.12241500    -0.19500
F466        F  0.11294433  0.37808303  0.10179259    -0.19500
F467        F  0.05659873  0.34404506  0.12968143    -0.19900
F468        F  0.09613786  0.39970200  0.15286854    -0.22500
C469        C  0.90671166  0.36650115  0.03400201    -0.05400
C470        C  0.93632513  0.39811649  0.05117445     0.00600
C471        C  0.95195656  0.43367906  0.02846016    -0.08000
C472        C  0.96648323  0.41962911  0.49958231    -0.05400
C473        C  0.94710847  0.38196344  0.48242412     0.00500
C474        C  0.91111162  0.35624558  0.49827901    -0.07900
C475        C  0.87976847  0.32273672  0.47932722     0.62500
H476        H  0.87675230  0.35227774  0.04543953     0.13200
H477        H  0.98698243  0.44493598  0.48592920     0.13200
C478        C  0.92644728  0.47996712  0.02439539     0.62700
F479        F  0.84333618  0.30635752  0.00512581    -0.22500
F480        F  0.90664065  0.28669870  0.46809824    -0.19800
F481        F  0.85842497  0.34518855  0.45278500    -0.19500
F482        F  0.90495242  0.48436821  0.99350321    -0.19500
F483        F  0.95905264  0.51523544  0.02712149    -0.19900
F484        F  0.88150646  0.48436586  0.54467314    -0.22500
C485        C  0.94750140  0.38590474  0.58884143    -0.02100
C486        C  0.66737740  0.12233802  0.84655828    -0.02100
O487        O  0.68086621  0.16516280  0.68268986    -0.78100
C488        C  0.76547674  0.21971532  0.60175298     0.83000
O489        O  0.57558901  0.19154278  0.59148380    -0.79200
O490        O  0.70797780  0.12700392  0.52980346    -0.80700
O491        O  0.72972736  0.02852387  0.62503386    -0.80500
O492        O  0.67233586  0.08871245  0.68502946    -0.79100
Zn493      Zn  0.67673766  0.18158159  0.63451211     1.55700
O494        O  0.76872456  0.06706421  0.58590312    -0.80500
Cd495      Cd  0.67133932  0.07018201  0.63482689     1.59700
Cd496      Cd  0.61219031  0.13136122  0.57793708     1.59600
O497        O  0.61204764  0.03025667  0.62326721    -0.80500
O498        O  0.67140913  0.12745661  0.60648969    -1.91000
Cd499      Cd  0.72852972  0.12628075  0.57807612     1.59900
O500        O  0.57074666  0.07051714  0.58538019    -0.80500
O501        O  0.77007285  0.18505106  0.58325244    -0.79100
C502        C  0.58455872  0.22433642  0.61169612     0.83400
C503        C  0.67736266  0.12774128  0.69912400     0.83100
O504        O  0.73186376  0.22111668  0.62216334    -0.78100
C505        C  0.76390164  0.03207854  0.60492657     0.83900
O506        O  0.62166666  0.22331713  0.62947084    -0.78200
C507        C  0.57674366  0.03428830  0.60346626     0.84000
C508        C  0.66988738  0.13218433  0.51316853     0.84400
O509        O  0.62977146  0.13631136  0.52702857    -0.80600
C510        C  0.72186185  0.12054710  0.86904109    -0.02100
O511        O  0.94751955  0.34250797  0.92987719    -0.78100
C512        C  0.84621835  0.28763427  0.85842804     0.83000
O513        O  0.03679397  0.32883605  0.82542358    -0.79200
O514        O  0.89107777  0.37454342  0.77667569    -0.80700
O515        O  0.88048359  0.47307443  0.87102121    -0.80500
O516        O  0.94328891  0.41904720  0.92891526    -0.79100
Zn517      Zn  0.94480834  0.32447167  0.88068476     1.55700
O518        O  0.83945842  0.43466136  0.83308252    -0.80500
Cd519      Cd  0.94020735  0.43489867  0.87959617     1.59700
Cd520      Cd  0.99217801  0.38399833  0.82030698     1.59600
O521        O  0.99658315  0.47681537  0.86843279    -0.80500
O522        O  0.93935627  0.37876458  0.85236165    -1.91000
Cd523      Cd  0.87906727  0.37702911  0.82637229     1.59900
O524        O  0.03123326  0.44311841  0.82647205    -0.80500
O525        O  0.83800412  0.32197737  0.83961074    -0.79100
C526        C  0.03684220  0.29519528  0.84580018     0.83400
C527        C  0.94552014  0.38100787  0.94478977     0.83100
O528        O  0.88546362  0.28398828  0.87443329    -0.78100
C529        C  0.84481342  0.46906435  0.85174938     0.83900
O530        O  0.00501233  0.28998107  0.86769943    -0.78200
C531        C  0.02855802  0.47592488  0.84671590     0.84000
C532        C  0.92777867  0.38064981  0.75935756     0.84400
O533        O  0.96837302  0.38634490  0.77245006    -0.80600
C534        C  0.89829428  0.38100883  0.61449068    -0.02100
C535        C  0.45082505  0.38918932  0.61817080    -0.02100
C536        C  0.16682134  0.14206410  0.86662246    -0.02100
O537        O  0.17717025  0.09629116  0.52354396    -0.78100
C538        C  0.27001903  0.04935509  0.60066048     0.83000
O539        O  0.07859941  0.08471980  0.62205700    -0.79200
O540        O  0.22211651  0.14011823  0.67431939    -0.80700
O541        O  0.22489783  0.24096580  0.57963222    -0.80500
O542        O  0.18798522  0.17196798  0.52140048    -0.79100
Zn543      Zn  0.17562628  0.08308557  0.57286535     1.55700
O544        O  0.27251196  0.20302664  0.61468096    -0.80500
Cd545      Cd  0.17502684  0.19201251  0.56832043     1.59700
Cd546      Cd  0.12141874  0.14245951  0.62939136     1.59600
O547        O  0.11009599  0.22336378  0.56877920    -0.80500
O548        O  0.17667254  0.13864028  0.59898936    -1.91000
Cd549      Cd  0.23653822  0.14240309  0.62479438     1.59900
O550        O  0.07991692  0.19971594  0.61638380    -0.80500
O551        O  0.27903490  0.08641480  0.61604365    -0.79100
C552        C  0.08238413  0.05092623  0.60248489     0.83400
C553        C  0.18353939  0.13351515  0.50715239     0.83100
O554        O  0.23174150  0.04330083  0.58434235    -0.78100
C555        C  0.26197994  0.23879005  0.59757303     0.83900
O556        O  0.11694741  0.04720068  0.58298242    -0.78200
C557        C  0.07813623  0.22527763  0.59047926     0.84000
C558        C  0.18589295  0.14000664  0.69242933     0.84400
O559        O  0.14433334  0.14240583  0.67944815    -0.80600
C560        C  0.21291760  0.12807445  0.83963039    -0.02100
O561        O  0.39981722  0.27568857  0.82998300    -0.78100
C562        C  0.46593550  0.36912891  0.76179000     0.83000
O563        O  0.54944096  0.32416949  0.88245173    -0.79200
O564        O  0.50231305  0.47225883  0.83496431    -0.80700
O565        O  0.34551191  0.42759264  0.86592583    -0.80500
O566        O  0.34875589  0.31075216  0.86212046    -0.79100
Zn567      Zn  0.45692181  0.31743104  0.82686946     1.55700
O568        O  0.38606798  0.46512497  0.82715858    -0.80500
Cd569      Cd  0.38675552  0.36952039  0.87588105     1.59700
Cd570      Cd  0.50295606  0.38003007  0.88568894     1.59600
O571        O  0.39858905  0.36825931  0.92623209    -0.80500
O572        O  0.44899425  0.37288827  0.85288914    -1.91000
Cd573      Cd  0.44789524  0.42779870  0.82327345     1.59900
O574        O  0.47576386  0.37984458  0.93278464    -0.80500
O575        O  0.45789474  0.40773762  0.77526925    -0.79100
C576        C  0.54720616  0.28873543  0.86413241     0.83400
C577        C  0.35998413  0.27691800  0.84407588     0.83100
O578        O  0.46669341  0.33156349  0.77833816    -0.78100
C579        C  0.35034160  0.46126545  0.84574367     0.83900
O580        O  0.51378796  0.28269699  0.84323710    -0.78200
C581        C  0.43481161  0.37437635  0.94486342     0.84000
C582        C  0.53545109  0.47381067  0.85654225     0.84400
O583        O  0.54088444  0.44202097  0.87832585    -0.80600
C584        C  0.39978218  0.39174356  0.59550652    -0.02100
C585        C  0.38191795  0.37117078  0.99289933    -0.05400
C586        C  0.42791889  0.37634782  0.98139481     0.00600
C587        C  0.46379774  0.38719004  0.00472822    -0.08000
C588        C  0.45242050  0.38620063  0.03846877    -0.05400
C589        C  0.40543907  0.38797605  0.55610703     0.00500
C590        C  0.36937376  0.38422260  0.02485539    -0.07900
C591        C  0.31387167  0.39052778  0.53691366     0.62500
H592        H  0.35375299  0.36407553  0.97520722     0.13200
H593        H  0.48027792  0.38163990  0.55850146     0.13200
C594        C  0.51409866  0.39946405  0.99492612     0.62700
F595        F  0.31312617  0.43223105  0.99682188    -0.22500
F596        F  0.30125413  0.41981178  0.56127852    -0.19800
F597        F  0.29726330  0.34660490  0.54318047    -0.19500
F598        F  0.51345349  0.43771355  0.97420046    -0.19500
F599        F  0.53476833  0.36278233  0.97932211    -0.19900
F600        F  0.54235841  0.41029710  0.02184702    -0.22500
C601        C  0.30084328  0.15909556  0.83411715    -0.05400
C602        C  0.25138269  0.16986818  0.83513881     0.00600
C603        C  0.24329201  0.21743642  0.82485997    -0.08000
C604        C  0.27801659  0.25086593  0.83281142    -0.05400
C605        C  0.32510165  0.23897406  0.83871813     0.00500
C606        C  0.33751825  0.19215978  0.83602193    -0.07900
C607        C  0.38887946  0.17664848  0.83547716     0.62500
H608        H  0.31197647  0.12394197  0.83264481     0.13200
H609        H  0.26978572  0.28715612  0.82955462     0.13200
C610        C  0.20846800  0.23632920  0.79906319     0.62700
F611        F  0.39314689  0.12914261  0.83539734    -0.22500
F612        F  0.41303769  0.19285168  0.86291542    -0.19800
F613        F  0.41000561  0.19334761  0.80721788    -0.19500
F614        F  0.18223563  0.27157111  0.81200466    -0.19500
F615        F  0.17851343  0.20471507  0.78572292    -0.19900
F616        F  0.23382620  0.25457235  0.77298411    -0.22500
C617        C  0.30130371  0.03106351  0.88017289    -0.05400
C618        C  0.29574848  0.99587096  0.85782257     0.00600
C619        C  0.28342367  0.50245678  0.81700215    -0.08000
C620        C  0.23279783  0.03992389  0.83194302    -0.05400
C621        C  0.24084205  0.08063856  0.85123200     0.00500
C622        C  0.27780190  0.07384544  0.87678600    -0.07900
C623        C  0.30265243  0.10866947  0.89873414     0.62500
H624        H  0.32919802  0.02674445  0.89866975     0.13200
H625        H  0.20788617  0.03997698  0.81218967     0.13200
C626        C  0.28116547  0.46555422  0.79062511     0.62700
F627        F  0.29989903  0.09446024  0.93128437    -0.22500
F628        F  0.28538154  0.15191784  0.89524872    -0.19800
F629        F  0.35018563  0.11082487  0.89135044    -0.19500
F630        F  0.27273665  0.42301798  0.80528262    -0.19500
F631        F  0.32354125  0.46409659  0.77418854    -0.19900
F632        F  0.24547848  0.47349494  0.76755233    -0.22500
C633        C  0.15237624  0.12785693  0.74875916    -0.05400
C634        C  0.19248498  0.13449218  0.72929798     0.00600
C635        C  0.23733573  0.12830683  0.74508401    -0.08000
C636        C  0.23902370  0.11789511  0.77905188    -0.05400
C637        C  0.19960065  0.11969543  0.80041551     0.00500
C638        C  0.15584587  0.11225891  0.78201460    -0.07900
C639        C  0.11993402  0.07391347  0.78799205     0.62500
H640        H  0.11804725  0.12679819  0.73649838     0.13200
H641        H  0.27257950  0.10822029  0.78928045     0.13200
C642        C  0.28422207  0.13308248  0.72723991     0.62700
F643        F  0.11895824  0.04442905  0.76134656    -0.22500
F644        F  0.07507368  0.09171574  0.79097212    -0.19800
F645        F  0.13077496  0.04685015  0.81447290    -0.19500
F646        F  0.28655611  0.17550608  0.71135118    -0.19500
F647        F  0.28871312  0.09798820  0.70478020    -0.19900
F648        F  0.32279441  0.13070832  0.74864225    -0.22500
C649        C  0.34166794  0.27146452  0.59430255    -0.05400
C650        C  0.29396674  0.27882092  0.59903297     0.00600
C651        C  0.27952470  0.32231582  0.60949320    -0.08000
C652        C  0.31375358  0.35784073  0.61085674    -0.05400
C653        C  0.36373923  0.35023667  0.60787485     0.00500
C654        C  0.37478736  0.30110401  0.60944716    -0.07900
C655        C  0.39397097  0.27470954  0.64020478     0.62500
H656        H  0.35200863  0.23698575  0.58751965     0.13200
H657        H  0.29866427  0.39092832  0.61317485     0.13200
C658        C  0.22804670  0.33185340  0.61695038     0.62700
F659        F  0.39735504  0.22770255  0.63473218    -0.22500
F660        F  0.36320333  0.27989220  0.66596661    -0.19800
F661        F  0.43836770  0.28693373  0.65028093    -0.19500
F662        F  0.21140452  0.29938290  0.63925845    -0.19500
F663        F  0.20125741  0.32985803  0.58821394    -0.19900
F664        F  0.22210763  0.37487659  0.63049933    -0.22500
C665        C  0.33813442  0.51052592  0.57273796    -0.05400
C666        C  0.30487046  0.01214557  0.60165851     0.00600
C667        C  0.31438281  0.48519027  0.62675681    -0.08000
C668        C  0.34943093  0.45126276  0.62556395    -0.05400
C669        C  0.37731919  0.44238107  0.59813145     0.00500
C670        C  0.37598423  0.47910903  0.57295349    -0.07900
C671        C  0.41258149  0.49249154  0.54708339     0.62500
H672        H  0.33408022  0.53511842  0.55249630     0.13200
H673        H  0.35228114  0.42826603  0.64561152     0.13200
C674        C  0.27311747  0.97629392  0.65554471     0.62700
F675        F  0.42256774  0.53916035  0.54958067    -0.22500
F676        F  0.39423825  0.48484494  0.51585418    -0.19800
F677        F  0.45515406  0.47096231  0.55024236    -0.19500
F678        F  0.30050473  0.97332924  0.68400702    -0.19500
F679        F  0.24378865  0.93807838  0.65385176    -0.19900
F680        F  0.24507199  0.01490489  0.65789839    -0.22500
C681        C  0.13182539  0.15670580  0.92431072    -0.05400
C682        C  0.17400609  0.14793140  0.90656793     0.00600
C683        C  0.21031484  0.13167367  0.92901790    -0.08000
C684        C  0.19551277  0.09518409  0.95005306    -0.05400
C685        C  0.15505720  0.10402950  0.96861497     0.00500
C686        C  0.12089759  0.13364736  0.95404812    -0.07900
C687        C  0.07443132  0.14407557  0.97049001     0.62500
H688        H  0.10703650  0.18131874  0.91542380     0.13200
H689        H  0.22277082  0.07467846  0.96213469     0.13200
C690        C  0.23494260  0.16774191  0.95257224     0.62700
F691        F  0.03756646  0.13774884  0.94829607    -0.22500
F692        F  0.16098000  0.23729249  0.48360921    -0.19800
F693        F  0.10151873  0.18654967  0.49302355    -0.19500
F694        F  0.26412737  0.19969524  0.93795124    -0.19500
F695        F  0.26294039  0.14593438  0.97636310    -0.19900
F696        F  0.20156966  0.19279101  0.96904912    -0.22500
C697        C  0.48244378  0.41596671  0.67697131    -0.05400
C698        C  0.44558230  0.39201625  0.65868348     0.00600
C699        C  0.41830774  0.36195138  0.68030353    -0.08000
C700        C  0.44374497  0.34028662  0.70643066    -0.05400
C701        C  0.47254904  0.36889695  0.72568921     0.00500
C702        C  0.49481976  0.40614356  0.70990467    -0.07900
C703        C  0.53499030  0.43347290  0.72576995     0.62500
H704        H  0.50623217  0.44009803  0.66560631     0.13200
H705        H  0.42745826  0.31103483  0.71882513     0.13200
C706        C  0.37002381  0.37643457  0.69425364     0.62700
F707        F  0.57406725  0.43264703  0.70570831    -0.22500
F708        F  0.54878556  0.41574697  0.75621935    -0.19800
F709        F  0.52116566  0.47870030  0.72944482    -0.19500
F710        F  0.35994750  0.35570058  0.72444115    -0.19500
F711        F  0.33300430  0.36410955  0.67404789    -0.19900
F712        F  0.36960123  0.42321832  0.69998106    -0.22500
C713        C  0.05359268  0.05793082  0.85756591    -0.05400
C714        C  0.06286693  0.51466398  0.84530963     0.00600
C715        C  0.11041593  0.50954017  0.83704256    -0.08000
C716        C  0.14607369  0.05738729  0.87977860    -0.05400
C717        C  0.12839869  0.10060140  0.86775291     0.00500
C718        C  0.07680339  0.10046814  0.86252871    -0.07900
C719        C  0.03900638  0.13809142  0.86543252     0.62500
H720        H  0.01666700  0.05752235  0.84970513     0.13200
H721        H  0.18080266  0.05622208  0.89070672     0.13200
C722        C  0.13088666  0.46302253  0.82794251     0.62700
F723        F  0.00411428  0.12278812  0.88662855    -0.22500
F724        F  0.01765489  0.14557518  0.83496953    -0.19800
F725        F  0.05337638  0.17926209  0.87778493    -0.19500
F726        F  0.11207902  0.44887819  0.79807160    -0.19500
F727        F  0.12070184  0.43064167  0.85217313    -0.19900
F728        F  0.17947281  0.46467467  0.82505534    -0.22500
C729        C  0.11093728  0.26537007  0.86918910    -0.05400
C730        C  0.07613185  0.26218346  0.84495983     0.00600
C731        C  0.07928655  0.22726672  0.82139210    -0.08000
C732        C  0.11080157  0.19036185  0.82777264    -0.05400
C733        C  0.14351713  0.18963516  0.85455445     0.00500
C734        C  0.14743639  0.23297256  0.87184805    -0.07900
C735        C  0.18920946  0.24966342  0.89184134     0.62500
H736        H  0.11098845  0.29500176  0.88525284     0.13200
H737        H  0.10604361  0.16037807  0.81361322     0.13200
C738        C  0.04779615  0.22796644  0.79087453     0.62700
F739        F  0.20316459  0.29277430  0.88048591    -0.22500
F740        F  0.22681028  0.22121287  0.88889400    -0.19800
F741        F  0.17710238  0.25337322  0.92451627    -0.19500
F742        F  0.05828641  0.26687733  0.77234278    -0.19500
F743        F  0.00074019  0.22905654  0.79958943    -0.19900
F744        F  0.05469966  0.18981137  0.77147044    -0.22500
C745        C  0.87953929  0.39757170  0.71011328    -0.05400
C746        C  0.92238123  0.38198263  0.72306055     0.00600
C747        C  0.95687381  0.36570789  0.70153391    -0.08000
C748        C  0.94862954  0.37001482  0.66736376    -0.05400
C749        C  0.90491748  0.38297444  0.65320872     0.00500
C750        C  0.86756889  0.39459965  0.67656097    -0.07900
C751        C  0.81401491  0.40376405  0.67085303     0.62500
H752        H  0.85324086  0.40969463  0.72711178     0.13200
H753        H  0.97558382  0.36032449  0.65153414     0.13200
C754        C  0.00027364  0.34027048  0.71449843     0.62700
F755        F  0.78799764  0.37697906  0.69255024    -0.22500
F756        F  0.79584958  0.39429472  0.64022401    -0.19800
F757        F  0.80397005  0.44916690  0.67763565    -0.19500
F758        F  0.98726297  0.30865748  0.73853123    -0.19500
F759        F  0.03254891  0.37126731  0.72757458    -0.19900
F760        F  0.02202719  0.31574079  0.69014392    -0.22500
C761        C  0.74047354  0.03541537  0.85236470    -0.05400
C762        C  0.75749453  0.08090106  0.85731719     0.00600
C763        C  0.80827720  0.08576464  0.85122883    -0.08000
C764        C  0.83677196  0.04701684  0.85628893    -0.05400
C765        C  0.81085565  0.50735377  0.84976038     0.00500
C766        C  0.76227474  0.50232910  0.84203825    -0.07900
C767        C  0.73967588  0.45549037  0.83549545     0.62500
H768        H  0.70414596  0.02818993  0.85316431     0.13200
H769        H  0.87487125  0.05147817  0.85797228     0.13200
C770        C  0.83555122  0.12384554  0.83247083     0.62700
F771        F  0.69080786  0.45757692  0.83405153    -0.22500
F772        F  0.75197137  0.42458057  0.86038313    -0.19800
F773        F  0.75480809  0.43920350  0.80561193    -0.19500
F774        F  0.85731051  0.15382950  0.85398989    -0.19500
F775        F  0.80876515  0.14732309  0.80957786    -0.19900
F776        F  0.87130211  0.10490706  0.81398352    -0.22500
C777        C  0.75104876  0.19696931  0.84044661    -0.05400
C778        C  0.75351971  0.16720379  0.86808308     0.00600
C779        C  0.78732105  0.18198010  0.89365750    -0.08000
C780        C  0.80928106  0.22552422  0.89112545    -0.05400
C781        C  0.80957238  0.25078700  0.86183415     0.00500
C782        C  0.77914744  0.23675867  0.83589737    -0.07900
C783        C  0.77862361  0.26103569  0.80235248     0.62500
H784        H  0.73346169  0.18510920  0.81930196     0.13200
H785        H  0.83165742  0.23753300  0.91125344     0.13200
C786        C  0.80862453  0.15336446  0.92203308     0.62700
F787        F  0.74900139  0.23945127  0.77977619    -0.22500
F788        F  0.82362932  0.26135099  0.78951797    -0.19800
F789        F  0.76299612  0.30579642  0.80550791    -0.19500
F790        F  0.85672990  0.16207492  0.92536942    -0.19500
F791        F  0.80541752  0.10727148  0.91707674    -0.19900
F792        F  0.78762433  0.16455324  0.95133679    -0.22500
C793        C  0.52900380  0.42785857  0.59506531    -0.06200
C794        C  0.48320278  0.43470079  0.60901418     0.00600
C795        C  0.47418537  0.48357230  0.61694906    -0.08000
C796        C  0.49592568  0.00508314  0.61361518    -0.05400
C797        C  0.54106298  0.99592635  0.60278926     0.00500
C798        C  0.56270552  0.46294274  0.58976138    -0.07900
C799        C  0.61248633  0.45087151  0.57906191     0.62500
H800        H  0.54075874  0.39417979  0.58878859     0.13200
H801        H  0.48843710  0.04072835  0.61943777     0.13200
C802        C  0.44198886  0.50591181  0.64247439     0.62700
F803        F  0.61753344  0.40432096  0.57306287    -0.22500
F804        F  0.64494550  0.46231774  0.60345901    -0.19800
F805        F  0.62307461  0.47491965  0.55045603    -0.19500
F806        F  0.41746202  0.47696115  0.66257120    -0.19500
F807        F  0.41054224  0.53543601  0.62671083    -0.19900
F808        F  0.45806927  0.00904058  0.67384400    -0.22500
C809        C  0.51507634  0.26697782  0.59066470    -0.05400
C810        C  0.55152232  0.26502142  0.61361658     0.00600
C811        C  0.55627812  0.30234225  0.63533374    -0.08000
C812        C  0.52320892  0.33860807  0.63321134    -0.05400
C813        C  0.48221645  0.34144714  0.61182999     0.00500
C814        C  0.47936442  0.30133755  0.58860345    -0.07900
C815        C  0.44723359  0.28397128  0.55933205     0.62500
H816        H  0.51506468  0.23922162  0.57298905     0.13200
H817        H  0.53285265  0.36789500  0.64724600     0.13200
C818        C  0.59719091  0.30584016  0.66014700     0.62700
F819        F  0.43422199  0.23845435  0.56546054    -0.22500
F820        F  0.47377435  0.28444055  0.53090437    -0.19800
F821        F  0.40584627  0.30448576  0.55102941    -0.19500
F822        F  0.63963495  0.30786801  0.64369373    -0.19500
F823        F  0.59671569  0.26812511  0.68134426    -0.19900
F824        F  0.59473196  0.34482316  0.67932416    -0.22500
C825        C  0.70638100  0.08717010  0.96591156    -0.05400
C826        C  0.68782997  0.12818251  0.97706155     0.00600
C827        C  0.68008460  0.16447624  0.95478515    -0.08000
C828        C  0.69159014  0.15830380  0.92152849    -0.05400
C829        C  0.70996311  0.11662518  0.90806026     0.00500
C830        C  0.71794793  0.07904302  0.93261866    -0.07900
C831        C  0.73599295  0.02933413  0.92737208     0.62500
H832        H  0.71176836  0.06100131  0.98480262     0.13200
H833        H  0.68826956  0.18839845  0.90591509     0.13200
C834        C  0.66058236  0.21000322  0.96641919     0.62700
F835        F  0.74089819  0.00431788  0.95654167    -0.22500
F836        F  0.78017586  0.02877759  0.91412207    -0.19800
F837        F  0.70478871  0.00390724  0.90861435    -0.19500
F838        F  0.66833948  0.22918402  0.49211714    -0.19500
F839        F  0.59791746  0.19900899  0.47670509    -0.19900
F840        F  0.65514515  0.24171292  0.94088639    -0.22500
C841        C  0.83996534  0.00391731  0.62583594    -0.05400
C842        C  0.80118504  0.99627048  0.60545603     0.00600
C843        C  0.79596496  0.45794413  0.57764046    -0.08000
C844        C  0.82959041  0.42264413  0.58368768    -0.05400
C845        C  0.86749832  0.42623086  0.60701804     0.00500
C846        C  0.87079852  0.47061384  0.62442378    -0.07900
C847        C  0.90627573  0.48802459  0.65108322     0.62500
H848        H  0.84057274  0.03579898  0.63959019     0.13200
H849        H  0.82343535  0.39048240  0.57144463     0.13200
C850        C  0.75691898  0.44817863  0.55263900     0.62700
F851        F  0.92727954  0.03571681  0.64444666    -0.22500
F852        F  0.94559270  0.46178681  0.65719147    -0.19800
F853        F  0.88334661  0.49327356  0.68060291    -0.19500
F854        F  0.72556233  0.48420539  0.54864341    -0.19500
F855        F  0.73185665  0.40947980  0.56257952    -0.19900
F856        F  0.77683710  0.43970149  0.52241849    -0.22500
C857        C  0.79604321  0.29237809  0.62565941    -0.05400
C858        C  0.80006117  0.25901855  0.60111575     0.00600
C859        C  0.84072021  0.26177266  0.58090553    -0.08000
C860        C  0.87226495  0.29957930  0.58543098    -0.05400
C861        C  0.86764642  0.33261551  0.61099473     0.00500
C862        C  0.83767981  0.31371016  0.63637141    -0.07900
C863        C  0.85721975  0.28780021  0.66724007     0.62500
H864        H  0.76802537  0.28909102  0.64345823     0.13200
H865        H  0.90180895  0.30067283  0.56961107     0.13200
C866        C  0.85190880  0.22551700  0.55544000     0.62700
F867        F  0.84470068  0.24146958  0.66662270    -0.22500
F868        F  0.83870447  0.30540739  0.69559685    -0.19800
F869        F  0.90552940  0.28858374  0.67003892    -0.19500
F870        F  0.81481021  0.22174108  0.53300860    -0.19500
F871        F  0.85952026  0.18346482  0.57101716    -0.19900
F872        F  0.89224523  0.23624643  0.53797900    -0.22500
C873        C  0.57275425  0.02634693  0.82759763    -0.05400
C874        C  0.56430402  0.00663090  0.85841394     0.00600
C875        C  0.59493616  0.01780238  0.88489848    -0.08000
C876        C  0.62893910  0.05275663  0.87972772    -0.05400
C877        C  0.63703131  0.07478017  0.84917580     0.00500
C878        C  0.61536356  0.04956348  0.82193514    -0.07900
C879        C  0.64055926  0.02908435  0.79225594     0.62500
H880        H  0.58103621  0.48863135  0.80524358     0.13200
H881        H  0.64831549  0.06268297  0.90027441     0.13200
C882        C  0.58910249  0.99671618  0.91910660     0.62700
F883        F  0.61861380  0.50817588  0.76107529    -0.22500
F884        F  0.68885931  0.03101511  0.79470652    -0.19800
F885        F  0.62526680  0.05005239  0.76337600    -0.19500
F886        F  0.60189400  0.95080341  0.91891386    -0.19500
F887        F  0.54256147  0.00054760  0.92852116    -0.19900
F888        F  0.61696275  0.01843221  0.94261826    -0.22500
C889        C  0.64526712  0.20959777  0.84060693    -0.05400
C890        C  0.63664552  0.16728522  0.85848497     0.00600
C891        C  0.59815758  0.17152376  0.88284088    -0.08000
C892        C  0.57538604  0.21478928  0.88641939    -0.05400
C893        C  0.58386806  0.25267103  0.86640534     0.00500
C894        C  0.61997443  0.25079928  0.84369464    -0.07900
C895        C  0.62931323  0.29193145  0.82099176     0.62500
H896        H  0.66743436  0.21015046  0.81981029     0.13200
H897        H  0.54673770  0.21936926  0.90337016     0.13200
C898        C  0.57423883  0.13376305  0.90384598     0.62700
F899        F  0.66826944  0.28556271  0.80152250    -0.22500
F900        F  0.63723586  0.33088671  0.83963115    -0.19800
F901        F  0.59062458  0.29925730  0.80036887    -0.19500
F902        F  0.60527853  0.11326203  0.92559731    -0.19500
F903        F  0.55169838  0.10252483  0.88375700    -0.19900
F904        F  0.53897399  0.15010870  0.92387693    -0.22500
C905        C  0.63728456  0.14623809  0.75087111    -0.05400
C906        C  0.67759522  0.13033213  0.73561432     0.00600
C907        C  0.71594178  0.11568177  0.75519977    -0.08000
C908        C  0.71211949  0.11658137  0.78981480    -0.05400
C909        C  0.67028389  0.12806980  0.80682404     0.00500
C910        C  0.63047553  0.14140426  0.78520036    -0.07900
C911        C  0.57851062  0.14827199  0.79415177     0.62500
H912        H  0.60836232  0.15804929  0.73508349     0.13200
H913        H  0.74152862  0.10408845  0.80307262     0.13200
C914        C  0.76069827  0.09863063  0.73920745     0.62700
F915        F  0.54976325  0.12406712  0.77241327    -0.22500
F916        F  0.56730708  0.19447021  0.79113837    -0.19800
F917        F  0.56626575  0.13294648  0.82485352    -0.19500
F918        F  0.77896153  0.13305493  0.71913940    -0.19500
F919        F  0.75045684  0.06035644  0.72040536    -0.19900
F920        F  0.79512048  0.08615364  0.76211222    -0.22500
C921        C  0.97149858  0.30155492  0.60463489    -0.05400
C922        C  0.98040291  0.34171368  0.58524275     0.00600
C923        C  0.02229139  0.33890367  0.56461178    -0.08000
C924        C  0.04848124  0.29756071  0.56441701    -0.05400
C925        C  0.04006965  0.26057638  0.58593367     0.00500
C926        C  0.99839200  0.26105416  0.60427796    -0.07900
C927        C  0.98184000  0.21941521  0.62394601     0.62500
H928        H  0.94516942  0.30216709  0.62268734     0.13200
H929        H  0.07946516  0.29595911  0.54907193     0.13200
C930        C  0.04799036  0.37666715  0.54478877     0.62700
F931        F  0.93406270  0.22159616  0.63038922    -0.22500
F932        F  0.00646060  0.21666952  0.65360222    -0.19800
F933        F  0.98878084  0.17994838  0.60608461    -0.19500
F934        F  0.09538180  0.37759733  0.55388072    -0.19500
F935        F  0.03266319  0.42076265  0.54868754    -0.19900
F936        F  0.04571495  0.36584638  0.51173204    -0.22500
C937        C  0.96906709  0.47155588  0.59301507    -0.05400
C938        C  0.98298879  0.42599688  0.60163556     0.00600
C939        C  0.03057637  0.42322743  0.61748460    -0.08000
C940        C  0.05786000  0.46401635  0.62017081    -0.05400
C941        C  0.04852630  0.01220876  0.60397380     0.00500
C942        C  0.00109650  0.01530156  0.59457687    -0.07900
C943        C  0.97970304  0.06159455  0.58513836     0.62500
H944        H  0.93473343  0.47666279  0.58372909     0.13200
H945        H  0.09322401  0.46298620  0.63106711     0.13200
C946        C  0.06070231  0.38389165  0.63288055     0.62700
F947        F  0.93190270  0.05835475  0.57764112    -0.22500
F948        F  0.00262752  0.07989743  0.55806129    -0.19800
F949        F  0.98488022  0.09133131  0.61119491    -0.19500
F950        F  0.10429572  0.38287623  0.61785072    -0.19500
F951        F  0.04421882  0.34000526  0.63190184    -0.19900
F952        F  0.06874644  0.39369819  0.66578407    -0.22500
C953        C  0.90213064  0.36522180  0.53185178    -0.05400
C954        C  0.92917180  0.39696374  0.55063765     0.00600
C955        C  0.94547876  0.43326729  0.52917942    -0.08000
C956        C  0.96662301  0.41981722  0.99707280    -0.05400
C957        C  0.94361929  0.38299825  0.98141610     0.00500
C958        C  0.91015124  0.35772695  0.99986974    -0.07900
C959        C  0.87658967  0.32356470  0.98349746     0.62500
H960        H  0.86958237  0.35270431  0.54107904     0.13200
H961        H  0.98615163  0.44432425  0.98203602     0.13200
C962        C  0.91349314  0.47446783  0.52071176     0.62700
F963        F  0.84439333  0.30431598  0.49866888    -0.22500
F964        F  0.90194760  0.28679633  0.97180522    -0.19800
F965        F  0.85254828  0.34481234  0.95758359    -0.19500
F966        F  0.88687701  0.46600888  0.49239297    -0.19500
F967        F  0.94121808  0.51302781  0.51490970    -0.19900
F968        F  0.89080467  0.48564451  0.04656761    -0.22500
C969        C  0.95561594  0.88338582  0.09245468    -0.02100
C970        C  0.66558219  0.62635184  0.33639273    -0.02100
O971        O  0.68770459  0.67087716  0.17283820    -0.78100
C972        C  0.77198404  0.72140488  0.09262655     0.83000
O973        O  0.57948016  0.69246585  0.08143748    -0.79200
O974        O  0.71054096  0.63034138  0.01893538    -0.80700
O975        O  0.73674627  0.53347057  0.11636309    -0.80500
O976        O  0.68530319  0.59435719  0.17691251    -0.79100
Zn977      Zn  0.68273547  0.68470185  0.12423635     1.55700
O978        O  0.77320584  0.56914859  0.07468173    -0.80500
Cd979      Cd  0.67961572  0.57459478  0.12728353     1.59700
Cd980      Cd  0.61631335  0.63098601  0.07045596     1.59600
O981        O  0.62019093  0.53324387  0.11973271    -0.80500
O982        O  0.67740788  0.62998832  0.09719375    -1.91000
Cd983      Cd  0.73339581  0.62910342  0.06723270     1.59900
O984        O  0.57617586  0.57013138  0.08160387    -0.80500
O985        O  0.77624945  0.68756143  0.07322518    -0.79100
C986        C  0.59018172  0.72586559  0.10063687     0.83400
C987        C  0.68826512  0.63406019  0.19013137     0.83100
O988        O  0.73793731  0.72263779  0.11253084    -0.78100
C989        C  0.76938393  0.53551062  0.09509303     0.83900
O990        O  0.62821665  0.72617420  0.11750950    -0.78200
C991        C  0.58369895  0.53536696  0.10090078     0.84000
C992        C  0.67063836  0.63172426  0.00403530     0.84400
O993        O  0.63152531  0.63209925  0.01948713    -0.80600
C994        C  0.71823832  0.62630482  0.36128444    -0.02100
O995        O  0.94939200  0.83935388  0.43283623    -0.78100
C996        C  0.84824962  0.78984257  0.35894932     0.83000
O997        O  0.04685853  0.83273319  0.33290113    -0.79200
O998        O  0.89749058  0.87230931  0.28042229    -0.80700
O999        O  0.88830389  0.97432280  0.37458285    -0.80500
O1000       O  0.94715257  0.91602371  0.43248908    -0.79100
Zn1001     Zn  0.94894250  0.82205601  0.38309878     1.55700
O1002       O  0.84794466  0.93914450  0.33467659    -0.80500
Cd1003     Cd  0.94582608  0.93301445  0.38360641     1.59700
Cd1004     Cd  0.99792831  0.88336712  0.32394722     1.59600
O1005       O  0.00297708  0.97362233  0.37399844    -0.80500
O1006       O  0.94476544  0.87762499  0.35573205    -1.91000
Cd1007     Cd  0.88482004  0.87912225  0.32952164     1.59900
O1008       O  0.03213158  0.94574289  0.32789728    -0.80500
O1009       O  0.84083449  0.82658739  0.34253102    -0.79100
C1010       C  0.04627893  0.79737380  0.35170819     0.83400
C1011       C  0.94787808  0.87773432  0.44805148     0.83100
O1012       O  0.88788108  0.78282186  0.37416183    -0.78100
C1013       C  0.85376018  0.97258207  0.35419555     0.83900
O1014       O  0.01181283  0.78867954  0.37118909    -0.78200
C1015       C  0.03162668  0.97599954  0.35022297     0.84000
C1016       C  0.93429085  0.87337450  0.26280938     0.84400
O1017       O  0.97532432  0.87772234  0.27561258    -0.80600
C1018       C  0.90592741  0.87792517  0.11736243    -0.02100
C1019       C  0.45077511  0.88006932  0.11845855    -0.02100
C1020       C  0.17467620  0.64061483  0.36230401    -0.02100
O1021       O  0.18537185  0.59015463  0.02032112    -0.78100
C1022       C  0.27631229  0.54629299  0.10023488     0.83000
O1023       O  0.08719875  0.57919634  0.11961640    -0.79200
O1024       O  0.23196344  0.64176873  0.17195771    -0.80700
O1025       O  0.22445257  0.73620161  0.07206982    -0.80500
O1026       O  0.18578922  0.66624976  0.01807558    -0.79100
Zn1027     Zn  0.18324144  0.57840097  0.07019192     1.55700
O1028       O  0.27646821  0.70204797  0.10614750    -0.80500
Cd1029     Cd  0.17570590  0.68591244  0.06492089     1.59700
Cd1030     Cd  0.12943483  0.63647668  0.12755772     1.59600
O1031       O  0.11079186  0.71600470  0.06782441    -0.80500
O1032       O  0.18303792  0.63403875  0.09624736    -1.91000
Cd1033     Cd  0.24330903  0.64146748  0.12132318     1.59900
O1034       O  0.08762775  0.69439927  0.11767426    -0.80500
O1035       O  0.28549212  0.58449125  0.11418337    -0.79100
C1036       C  0.09074799  0.54585140  0.09969387     0.83400
C1037       C  0.18617954  0.62782445  0.00379122     0.83100
O1038       O  0.23843652  0.53932029  0.08369272    -0.78100
C1039       C  0.26331649  0.73604061  0.08792801     0.83900
O1040       O  0.12500444  0.54236871  0.07995282    -0.78200
C1041       C  0.08263854  0.71949706  0.09178577     0.84000
C1042       C  0.19561789  0.63591754  0.18975232     0.84400
O1043       O  0.15416566  0.63389555  0.17670878    -0.80600
C1044       C  0.22093319  0.63111960  0.33399637    -0.02100
O1045       O  0.39822117  0.78564069  0.32136716    -0.78100
C1046       C  0.46266988  0.89014240  0.26525992     0.83000
O1047       O  0.54544703  0.82029611  0.38374226    -0.79200
O1048       O  0.50480064  0.97380828  0.34278762    -0.80700
O1049       O  0.34201078  0.92884233  0.36781843    -0.80500
O1050       O  0.34677332  0.81396393  0.35637465    -0.79100
Zn1051     Zn  0.45730838  0.82592567  0.32476410     1.55700
O1052       O  0.38857894  0.97489197  0.33811052    -0.80500
Cd1053     Cd  0.38369317  0.87006353  0.37588950     1.59700
Cd1054     Cd  0.49996645  0.87619247  0.38836438     1.59600
O1055       O  0.39353733  0.86362560  0.42654795    -0.80500
O1056       O  0.44711368  0.87586138  0.35483415    -1.91000
Cd1057     Cd  0.44739317  0.93569925  0.33052837     1.59900
O1058       O  0.47070112  0.87424207  0.43451763    -0.80500
O1059       O  0.45207960  0.92588556  0.28113860    -0.79100
C1060       C  0.54568900  0.78933513  0.36179739     0.83400
C1061       C  0.35765172  0.78454969  0.33461050     0.83100
O1062       O  0.46863081  0.85094254  0.27911084    -0.78100
C1063       C  0.34990357  0.96682119  0.35262657     0.83900
O1064       O  0.51423718  0.78777599  0.33893025    -0.78200
C1065       C  0.42935560  0.86852224  0.44584290     0.84000
C1066       C  0.53887289  0.96933344  0.36324329     0.84400
O1067       O  0.54184232  0.93495752  0.38302572    -0.80600
C1068       C  0.40117273  0.88783242  0.09416935    -0.02100
C1069       C  0.37512906  0.86749653  0.49315523    -0.05400
C1070       C  0.42165488  0.87015557  0.48229866     0.00600
C1071       C  0.45753727  0.87960865  0.50596964    -0.08000
C1072       C  0.44476075  0.88398951  0.53922345    -0.05400
C1073       C  0.40721520  0.88819072  0.05493574     0.00500
C1074       C  0.36201408  0.88123195  0.52489146    -0.07900
C1075       C  0.31654173  0.89877905  0.03298073     0.62500
H1076       H  0.34731094  0.86082614  0.47511499     0.13200
H1077       H  0.48220990  0.89312025  0.05682149     0.13200
C1078       C  0.50958229  0.88445583  0.49709298     0.62700
F1079       F  0.30411979  0.92658973  0.49615787    -0.22500
F1080       F  0.30548606  0.92533893  0.05918313    -0.19800
F1081       F  0.28951187  0.85897287  0.03297548    -0.19500
F1082       F  0.51580824  0.92270234  0.47690783    -0.19500
F1083       F  0.52472716  0.84535784  0.48129411    -0.19900
F1084       F  0.53849601  0.89014168  0.52452830    -0.22500
C1085       C  0.29802967  0.67120633  0.30850609    -0.05400
C1086       C  0.25281101  0.67593307  0.32362180     0.00600
C1087       C  0.23935425  0.72332183  0.32386171    -0.08000
C1088       C  0.27444490  0.75544615  0.33341322    -0.05400
C1089       C  0.32187730  0.74839550  0.32519138     0.00500
C1090       C  0.33214333  0.70743562  0.30783618    -0.07900
C1091       C  0.37888532  0.70015115  0.29056550     0.62500
H1092       H  0.31075512  0.63812953  0.30174802     0.13200
H1093       H  0.26389124  0.79007598  0.33953201     0.13200
C1094       C  0.21012633  0.74406256  0.29566200     0.62700
F1095       F  0.37972312  0.65850693  0.27430936    -0.22500
F1096       F  0.41614829  0.70042132  0.31304538    -0.19800
F1097       F  0.38550422  0.73478802  0.26733191    -0.19500
F1098       F  0.18463479  0.78127192  0.30657731    -0.19500
F1099       F  0.17961736  0.71323048  0.28170274    -0.19900
F1100       F  0.23971427  0.75928365  0.27083060    -0.22500
C1101       C  0.33242237  0.55207923  0.36180866    -0.05400
C1102       C  0.31473193  0.50858406  0.35461982     0.00600
C1103       C  0.28450926  0.00751761  0.32235108    -0.08000
C1104       C  0.24075167  0.54466236  0.33988509    -0.05400
C1105       C  0.25601970  0.59053148  0.34754900     0.00500
C1106       C  0.30543783  0.59297028  0.35948361    -0.07900
C1107       C  0.33659517  0.63366329  0.37063294     0.62500
H1108       H  0.36928356  0.55393632  0.36965819     0.13200
H1109       H  0.20706103  0.54007661  0.32825767     0.13200
C1110       C  0.28663655  0.97239010  0.29477160     0.62700
F1111       F  0.35637311  0.62445928  0.40145759    -0.22500
F1112       F  0.31432148  0.67524723  0.37260002    -0.19800
F1113       F  0.37413208  0.63804073  0.34945093    -0.19500
F1114       F  0.27811624  0.92865635  0.30740063    -0.19500
F1115       F  0.33095071  0.97346473  0.28086296    -0.19900
F1116       F  0.25359681  0.98085060  0.26993169    -0.22500
C1117       C  0.16287770  0.63770198  0.24668387    -0.05400
C1118       C  0.20154705  0.62906403  0.22640903     0.00600
C1119       C  0.24104853  0.60612843  0.24117445    -0.08000
C1120       C  0.24154027  0.59827929  0.27565668    -0.05400
C1121       C  0.20545231  0.61414795  0.29681477     0.00500
C1122       C  0.16159556  0.61914013  0.27906530    -0.07900
C1123       C  0.12389778  0.58135909  0.28024532     0.62500
H1124       H  0.12983480  0.64852314  0.23518438     0.13200
H1125       H  0.27191534  0.58123507  0.28624453     0.13200
C1126       C  0.28272635  0.58973652  0.22126241     0.62700
F1127       F  0.12055061  0.55857995  0.25041358    -0.22500
F1128       F  0.08018160  0.60019989  0.28598858    -0.19800
F1129       F  0.13425476  0.54800212  0.30334704    -0.19500
F1130       F  0.30649392  0.62722069  0.20801517    -0.19500
F1131       F  0.26683184  0.56146855  0.19626999    -0.19900
F1132       F  0.31489310  0.56480833  0.24028154    -0.22500
C1133       C  0.34138979  0.77023430  0.07973200    -0.05400
C1134       C  0.29383293  0.77692773  0.08600545     0.00600
C1135       C  0.27910717  0.82002034  0.09732666    -0.08000
C1136       C  0.31363574  0.85475384  0.10127389    -0.05400
C1137       C  0.36360314  0.84623866  0.09995051     0.00500
C1138       C  0.37388462  0.79740425  0.09717764    -0.07900
C1139       C  0.39665728  0.76626569  0.12391918     0.62500
H1140       H  0.35204061  0.73589470  0.07259781     0.13200
H1141       H  0.29952716  0.88742060  0.10674295     0.13200
C1142       C  0.22741940  0.82954837  0.10444586     0.62700
F1143       F  0.43255241  0.74059599  0.11096457    -0.22500
F1144       F  0.36382445  0.73527075  0.13659458    -0.19800
F1145       F  0.41330997  0.78936500  0.15053814    -0.19500
F1146       F  0.21107104  0.79836667  0.12775577    -0.19500
F1147       F  0.20071870  0.82546366  0.07579715    -0.19900
F1148       F  0.22074334  0.87340898  0.11646013    -0.22500
C1149       C  0.34466069  0.01092341  0.07927238    -0.05400
C1150       C  0.31114064  0.50918689  0.10220796     0.00600
C1151       C  0.31669392  0.97868696  0.13033970    -0.08000
C1152       C  0.35033279  0.94353081  0.12756209    -0.05400
C1153       C  0.37984981  0.93814819  0.10024439     0.00500
C1154       C  0.38134786  0.97840942  0.07798757    -0.07900
C1155       C  0.41850205  0.99259172  0.05266548     0.62500
H1156       H  0.34179100  0.03776592  0.06045727     0.13200
H1157       H  0.35001464  0.91709989  0.14580558     0.13200
C1158       C  0.26972956  0.46577912  0.14975163     0.62700
F1159       F  0.42566866  0.03989366  0.05348837    -0.22500
F1160       F  0.40280189  0.98169499  0.02129124    -0.19800
F1161       F  0.46221276  0.97432724  0.05835520    -0.19500
F1162       F  0.29077626  0.46459774  0.18071088    -0.19500
F1163       F  0.24570356  0.42473668  0.14478395    -0.19900
F1164       F  0.23684004  0.50078419  0.14908646    -0.22500
C1165       C  0.14232918  0.65583741  0.42015715    -0.05400
C1166       C  0.18240690  0.63919156  0.40265422     0.00600
C1167       C  0.20887226  0.60583963  0.42276037    -0.08000
C1168       C  0.18611214  0.58145508  0.44862570    -0.05400
C1169       C  0.15206468  0.60447356  0.46636356     0.00500
C1170       C  0.12623959  0.63881630  0.45021243    -0.07900
C1171       C  0.08207864  0.65948833  0.46496510     0.62500
H1172       H  0.12137194  0.68320556  0.41111443     0.13200
H1173       H  0.20585626  0.55492201  0.46191845     0.13200
C1174       C  0.26004003  0.61289011  0.43311157     0.62700
F1175       F  0.04586254  0.66027366  0.44177696    -0.22500
F1176       F  0.16044994  0.73164427  0.98061990    -0.19800
F1177       F  0.10179905  0.67980047  0.98981516    -0.19500
F1178       F  0.27710676  0.65370878  0.42159288    -0.19500
F1179       F  0.28625784  0.57588472  0.42312967    -0.19900
F1180       F  0.26563570  0.61550036  0.46712985    -0.22500
C1181       C  0.49100813  0.88886262  0.17518371    -0.05400
C1182       C  0.44558921  0.88017357  0.15899291     0.00600
C1183       C  0.40685421  0.87363967  0.18326105    -0.08000
C1184       C  0.41532462  0.88793747  0.21595356    -0.05400
C1185       C  0.45997091  0.89231993  0.22937384     0.00500
C1186       C  0.49895941  0.89172824  0.20919757    -0.07900
C1187       C  0.54870002  0.89407757  0.22371152     0.62500
H1188       H  0.52272089  0.88896890  0.16087631     0.13200
H1189       H  0.38660820  0.88886822  0.23352135     0.13200
C1190       C  0.35802180  0.84903324  0.18481680     0.62700
F1191       F  0.58281642  0.89616927  0.19964079    -0.22500
F1192       F  0.55698599  0.85525591  0.24299895    -0.19800
F1193       F  0.55346174  0.93282332  0.24300519    -0.19500
F1194       F  0.36051279  0.81454060  0.20882151    -0.19500
F1195       F  0.34086847  0.82776051  0.15807480    -0.19900
F1196       F  0.32364112  0.87974489  0.19431220    -0.22500
C1197       C  0.05799926  0.56075495  0.34859234    -0.05400
C1198       C  0.06449061  0.01568958  0.34902076     0.00600
C1199       C  0.11126293  0.01244993  0.33879628    -0.08000
C1200       C  0.14913268  0.55508845  0.37199622    -0.05400
C1201       C  0.13443069  0.59993385  0.36098227     0.00500
C1202       C  0.08284242  0.60185784  0.35586752    -0.07900
C1203       C  0.04621683  0.63922716  0.36275564     0.62500
H1204       H  0.02128460  0.56238149  0.34034135     0.13200
H1205       H  0.18344692  0.55077333  0.38258792     0.13200
C1206       C  0.13149534  0.96747099  0.32623409     0.62700
F1207       F  0.01254166  0.62139859  0.38397293    -0.22500
F1208       F  0.02310879  0.65127149  0.33368943    -0.19800
F1209       F  0.06233926  0.67806960  0.37754762    -0.19500
F1210       F  0.11073794  0.95680587  0.29617925    -0.19500
F1211       F  0.12323189  0.93207066  0.34861087    -0.19900
F1212       F  0.17977919  0.97010800  0.32192046    -0.22500
C1213       C  0.12318793  0.76601729  0.37215667    -0.05400
C1214       C  0.08597430  0.76452528  0.34936355     0.00600
C1215       C  0.08745758  0.73177495  0.32420575    -0.08000
C1216       C  0.11880190  0.69431456  0.32781848    -0.05400
C1217       C  0.15253721  0.69036716  0.35371082     0.00500
C1218       C  0.15917082  0.73243039  0.37272056    -0.07900
C1219       C  0.20019500  0.74356173  0.39593920     0.62500
H1220       H  0.12450851  0.79412175  0.38951831     0.13200
H1221       H  0.11292755  0.66601460  0.31214159     0.13200
C1222       C  0.05431320  0.73539108  0.29463239     0.62700
F1223       F  0.21621948  0.78788562  0.38961121    -0.22500
F1224       F  0.23737709  0.71449900  0.39200596    -0.19800
F1225       F  0.18605541  0.74167094  0.42839409    -0.19500
F1226       F  0.06397223  0.77602149  0.27788740    -0.19500
F1227       F  0.00778480  0.73556285  0.30464560    -0.19900
F1228       F  0.05998042  0.69932074  0.27311649    -0.22500
C1229       C  0.88447955  0.88589630  0.21355911    -0.05400
C1230       C  0.92799817  0.87205159  0.22647298     0.00600
C1231       C  0.96286322  0.85733687  0.20472346    -0.08000
C1232       C  0.95534525  0.86410698  0.17067715    -0.05400
C1233       C  0.91151375  0.87661314  0.15633100     0.00500
C1234       C  0.87334312  0.88554895  0.17977932    -0.07900
C1235       C  0.82014340  0.89657065  0.17422216     0.62500
H1236       H  0.85752990  0.89647592  0.23058793     0.13200
H1237       H  0.98381821  0.85838260  0.15513901     0.13200
C1238       C  0.00509657  0.82973437  0.21700534     0.62700
F1239       F  0.79326302  0.86706185  0.19345275    -0.22500
F1240       F  0.80229619  0.89291985  0.14283996    -0.19800
F1241       F  0.81096322  0.94074305  0.18466904    -0.19500
F1242       F  0.99012864  0.79671976  0.23947810    -0.19500
F1243       F  0.03823131  0.85836196  0.23166791    -0.19900
F1244       F  0.02648785  0.80659077  0.19178759    -0.22500
C1245       C  0.74041205  0.54082356  0.34852857    -0.05400
C1246       C  0.75582531  0.58698492  0.35167672     0.00600
C1247       C  0.80688413  0.59266702  0.34643964    -0.08000
C1248       C  0.83621661  0.55489506  0.35325429    -0.05400
C1249       C  0.82055162  0.01144973  0.35297419     0.00500
C1250       C  0.77162313  0.00589816  0.35449335    -0.07900
C1251       C  0.74860590  0.95826751  0.35366805     0.62500
H1252       H  0.70448272  0.53287776  0.34901916     0.13200
H1253       H  0.87421276  0.56008097  0.35509758     0.13200
C1254       C  0.83463732  0.63096691  0.32821024     0.62700
F1255       F  0.70041415  0.95980413  0.35895094    -0.22500
F1256       F  0.76854275  0.93007704  0.37781457    -0.19800
F1257       F  0.75522447  0.93897338  0.32312639    -0.19500
F1258       F  0.85566079  0.66071962  0.35024728    -0.19500
F1259       F  0.80883400  0.65474940  0.30493985    -0.19900
F1260       F  0.87102614  0.61211180  0.31029247    -0.22500
C1261       C  0.75036497  0.70377739  0.33537794    -0.05400
C1262       C  0.75022960  0.67267731  0.36233057     0.00600
C1263       C  0.78266131  0.68521974  0.38944081    -0.08000
C1264       C  0.80643631  0.72795252  0.38873714    -0.05400
C1265       C  0.80983200  0.75432859  0.36019950     0.00500
C1266       C  0.78038047  0.74284022  0.33296135    -0.07900
C1267       C  0.78313270  0.76911023  0.30030226     0.62500
H1268       H  0.73376267  0.69307262  0.31328004     0.13200
H1269       H  0.82777068  0.73841273  0.40983732     0.13200
C1270       C  0.80023347  0.65496774  0.41823265     0.62700
F1271       F  0.75484465  0.74961032  0.27600834    -0.22500
F1272       F  0.82915852  0.76918400  0.28926120    -0.19800
F1273       F  0.76829247  0.81397982  0.30431387    -0.19500
F1274       F  0.84800425  0.66249136  0.42445028    -0.19500
F1275       F  0.79670998  0.60911335  0.41220741    -0.19900
F1276       F  0.77623676  0.66547159  0.44648275    -0.22500
C1277       C  0.53186256  0.91873505  0.10077482    -0.06200
C1278       C  0.48530920  0.92547100  0.11340460     0.00600
C1279       C  0.47837156  0.97277680  0.12565607    -0.08000
C1280       C  0.50476894  0.50460025  0.11551125    -0.05400
C1281       C  0.54881315  0.49629307  0.10245707     0.00500
C1282       C  0.56570816  0.95424054  0.09602697    -0.07900
C1283       C  0.61388505  0.94333290  0.08225466     0.62500
H1284       H  0.54339763  0.88478805  0.09503184     0.13200
H1285       H  0.49780588  0.53986277  0.12261235     0.13200
C1286       C  0.44559805  0.99227377  0.15191218     0.62700
F1287       F  0.61686335  0.89819439  0.07190302    -0.22500
F1288       F  0.64830814  0.95019812  0.10624610    -0.19800
F1289       F  0.62274443  0.97194224  0.05547172    -0.19500
F1290       F  0.41765205  0.96209768  0.16834961    -0.19500
F1291       F  0.41704403  0.02592464  0.13780631    -0.19900
F1292       F  0.46398719  0.50461451  0.17580918    -0.22500
C1293       C  0.54162567  0.79055478  0.07819609    -0.05400
C1294       C  0.55678188  0.76443689  0.10521693     0.00600
C1295       C  0.53627699  0.77229872  0.13574514    -0.08000
C1296       C  0.50084959  0.80581494  0.13763970    -0.05400
C1297       C  0.47997318  0.83107157  0.11015031     0.00500
C1298       C  0.49719475  0.81299286  0.07854844    -0.07900
C1299       C  0.46888817  0.79034424  0.04993397     0.62500
H1300       H  0.55780246  0.78259144  0.05486889     0.13200
H1301       H  0.48846434  0.80950284  0.16209480     0.13200
C1302       C  0.55250575  0.74596700  0.16670569     0.62700
F1303       F  0.46889524  0.74282512  0.05405195    -0.22500
F1304       F  0.49088378  0.79962525  0.02034122    -0.19800
F1305       F  0.42294267  0.80250567  0.04575845    -0.19500
F1306       F  0.59895297  0.75734842  0.17415320    -0.19500
F1307       F  0.54900825  0.69901557  0.16161056    -0.19900
F1308       F  0.52577462  0.75603537  0.19394885    -0.22500
C1309       C  0.69461371  0.59558003  0.45755777    -0.05400
C1310       C  0.67779418  0.63770377  0.46768535     0.00600
C1311       C  0.66990691  0.67272045  0.44439048    -0.08000
C1312       C  0.68196056  0.66470221  0.41144851    -0.05400
C1313       C  0.70209419  0.62275296  0.39952319     0.00500
C1314       C  0.70628498  0.58544212  0.42468359    -0.07900
C1315       C  0.72160891  0.53465202  0.42115738     0.62500
H1316       H  0.69924212  0.57033983  0.47717476     0.13200
H1317       H  0.67897634  0.69393459  0.39502431     0.13200
C1318       C  0.65106701  0.71918731  0.45466550     0.62700
F1319       F  0.72072605  0.50974258  0.45053125    -0.22500
F1320       F  0.76750124  0.53119232  0.41114205    -0.19800
F1321       F  0.69107941  0.51099980  0.40088171    -0.19500
F1322       F  0.71035695  0.72153545  0.98927986    -0.19500
F1323       F  0.63228642  0.72336978  0.97748927    -0.19900
F1324       F  0.64984070  0.75072717  0.42877397    -0.22500
C1325       C  0.84248305  0.50657572  0.11950626    -0.05400
C1326       C  0.80638038  0.49974998  0.09673456     0.00600
C1327       C  0.80727330  0.96103212  0.08256364    -0.08000
C1328       C  0.83905720  0.92402475  0.08767058    -0.05400
C1329       C  0.87602725  0.92419962  0.11184695     0.00500
C1330       C  0.87909365  0.96626672  0.13207257    -0.07900
C1331       C  0.91483187  0.98075977  0.15940390     0.62500
H1332       H  0.84207436  0.53854430  0.13315103     0.13200
H1333       H  0.83183184  0.89323627  0.07434689     0.13200
C1334       C  0.77112619  0.95986656  0.05461938     0.62700
F1335       F  0.92698167  0.53833173  0.14220600    -0.22500
F1336       F  0.95486587  0.95482875  0.16296536    -0.19800
F1337       F  0.89271911  0.98154182  0.18949898    -0.19500
F1338       F  0.77947857  0.99632414  0.03315490    -0.19500
F1339       F  0.72614721  0.96377974  0.06694687    -0.19900
F1340       F  0.77323921  0.91938798  0.03702727    -0.22500
C1341       C  0.79986623  0.79459265  0.11749795    -0.05400
C1342       C  0.80740539  0.75980463  0.09419847     0.00600
C1343       C  0.85242742  0.75936957  0.07906890    -0.08000
C1344       C  0.88423633  0.79607415  0.08625056    -0.05400
C1345       C  0.87547713  0.83007179  0.11085145     0.00500
C1346       C  0.84015820  0.81293640  0.13278074    -0.07900
C1347       C  0.85344371  0.78115477  0.16229907     0.62500
H1348       H  0.76770647  0.79427299  0.13163541     0.13200
H1349       H  0.91485078  0.79754593  0.07136787     0.13200
C1350       C  0.86799393  0.72073059  0.05678361     0.62700
F1351       F  0.85477240  0.73553183  0.15269684    -0.22500
F1352       F  0.81976100  0.78418337  0.18644350    -0.19800
F1353       F  0.89675181  0.79031515  0.17638431    -0.19500
F1354       F  0.83740030  0.71716998  0.03002842    -0.19500
F1355       F  0.86857950  0.67955701  0.07437240    -0.19900
F1356       F  0.91304396  0.72802253  0.04484849    -0.22500
C1357       C  0.59380410  0.50861922  0.32556615    -0.05400
C1358       C  0.57682976  0.50183050  0.35709825     0.00600
C1359       C  0.59349573  0.52965827  0.38264434    -0.08000
C1360       C  0.62181910  0.56812598  0.37434708    -0.05400
C1361       C  0.63807201  0.57843185  0.34189623     0.00500
C1362       C  0.62827704  0.54187543  0.31784677    -0.07900
C1363       C  0.65359954  0.53075819  0.28547436     0.62500
H1364       H  0.57277188  0.00303730  0.30887174     0.13200
H1365       H  0.62496671  0.59337954  0.39304501     0.13200
C1366       C  0.57774202  0.52142188  0.41788743     0.62700
F1367       F  0.65429375  0.98252336  0.29470393    -0.22500
F1368       F  0.70170397  0.53542110  0.28811671    -0.19800
F1369       F  0.63602046  0.55647412  0.25941568    -0.19500
F1370       F  0.59224709  0.47826836  0.42860719    -0.19500
F1371       F  0.52900341  0.52384341  0.41940894    -0.19900
F1372       F  0.59680206  0.55351487  0.43930329    -0.22500
C1373       C  0.64366065  0.71343699  0.33305543    -0.05400
C1374       C  0.63153714  0.66903594  0.34631606     0.00600
C1375       C  0.58807058  0.66993532  0.36594483    -0.08000
C1376       C  0.57289478  0.71242388  0.37863317    -0.05400
C1377       C  0.58278720  0.75350574  0.36227978     0.00500
C1378       C  0.61924700  0.75445366  0.33936867    -0.07900
C1379       C  0.63154956  0.79890256  0.32109066     0.62500
H1380       H  0.66706190  0.71587033  0.31293821     0.13200
H1381       H  0.54368059  0.71282517  0.39570024     0.13200
C1382       C  0.54613876  0.63577239  0.36748615     0.62700
F1383       F  0.66892003  0.79347386  0.29994835    -0.22500
F1384       F  0.64396467  0.83234647  0.34364493    -0.19800
F1385       F  0.59310800  0.81394885  0.30257119    -0.19500
F1386       F  0.54221922  0.61841469  0.39920455    -0.19500
F1387       F  0.54704213  0.60050934  0.34562653    -0.19900
F1388       F  0.50415180  0.65838358  0.35985778    -0.22500
C1389       C  0.64534398  0.65381542  0.23971248    -0.05400
C1390       C  0.68702881  0.63801763  0.22652033     0.00600
C1391       C  0.72308336  0.62267826  0.24789960    -0.08000
C1392       C  0.71520758  0.62292340  0.28216903    -0.05400
C1393       C  0.67113758  0.63241745  0.29684377     0.00500
C1394       C  0.63367040  0.64651983  0.27317482    -0.07900
C1395       C  0.57988923  0.64667542  0.27877424     0.62500
H1396       H  0.61946852  0.66690521  0.22207900     0.13200
H1397       H  0.74317216  0.61081415  0.29703532     0.13200
C1398       C  0.77011444  0.60696052  0.23448376     0.62700
F1399       F  0.55394342  0.65533378  0.25012023    -0.22500
F1400       F  0.56577225  0.67988956  0.30017893    -0.19800
F1401       F  0.56549649  0.60375463  0.28905886    -0.19500
F1402       F  0.79198446  0.64368642  0.21875636    -0.19500
F1403       F  0.76313401  0.57176997  0.21229390    -0.19900
F1404       F  0.80020386  0.59051381  0.25904937    -0.22500
C1405       C  0.97953924  0.79920545  0.11019531    -0.05400
C1406       C  0.98832088  0.83889284  0.08983669     0.00600
C1407       C  0.02967329  0.83521460  0.06887125    -0.08000
C1408       C  0.05406753  0.79305963  0.06785152    -0.05400
C1409       C  0.04599720  0.75642992  0.08972819     0.00500
C1410       C  0.00655007  0.75861969  0.11028555    -0.07900
C1411       C  0.99241535  0.71836757  0.13235644     0.62500
H1412       H  0.95251813  0.79992933  0.12809551     0.13200
H1413       H  0.08390510  0.79057666  0.05150802     0.13200
C1414       C  0.05671135  0.87242770  0.04930087     0.62700
F1415       F  0.94781518  0.72367814  0.14500630    -0.22500
F1416       F  0.02385033  0.71414619  0.15863124    -0.19800
F1417       F  0.99184493  0.67837714  0.11428986    -0.19500
F1418       F  0.10403934  0.87159899  0.05851483    -0.19500
F1419       F  0.04305168  0.91705594  0.05338181    -0.19900
F1420       F  0.05442054  0.86199346  0.01617952    -0.22500
C1421       C  0.97521597  0.96940701  0.09856541    -0.05400
C1422       C  0.99058215  0.92367741  0.10552375     0.00600
C1423       C  0.03856674  0.92107663  0.12081840    -0.08000
C1424       C  0.06587821  0.96188175  0.12279681    -0.05400
C1425       C  0.05612399  0.50797744  0.10056940     0.00500
C1426       C  0.00806620  0.51370264  0.09417054    -0.07900
C1427       C  0.98807696  0.56167901  0.08787754     0.62500
H1428       H  0.94051756  0.97432668  0.08938752     0.13200
H1429       H  0.10198533  0.96086447  0.13237668     0.13200
C1430       C  0.06888138  0.88206926  0.13657685     0.62700
F1431       F  0.94021925  0.56085736  0.08029378    -0.22500
F1432       F  0.01127322  0.58283628  0.06195605    -0.19800
F1433       F  0.99450580  0.58782823  0.11578909    -0.19500
F1434       F  0.11262765  0.88102277  0.12176713    -0.19500
F1435       F  0.05283139  0.83805663  0.13587656    -0.19900
F1436       F  0.07647218  0.89233906  0.16946735    -0.22500
C1437       C  0.90710619  0.86500676  0.03607359    -0.05400
C1438       C  0.93834728  0.89431509  0.05394525     0.00600
C1439       C  0.95873221  0.92743322  0.03153183    -0.08000
C1440       C  0.96739329  0.91652979  0.50063037    -0.05400
C1441       C  0.94463881  0.87967946  0.48464503     0.00500
C1442       C  0.90911327  0.85592488  0.50235604    -0.07900
C1443       C  0.87378804  0.82464797  0.48489207     0.62500
H1444       H  0.87530256  0.85363667  0.04665809     0.13200
H1445       H  0.98795257  0.94067085  0.48599445     0.13200
C1446       C  0.93609434  0.97481145  0.02578939     0.62700
F1447       F  0.84125233  0.80883737  0.00557554    -0.22500
F1448       F  0.89678305  0.78689807  0.47246221    -0.19800
F1449       F  0.85183366  0.84865747  0.45929901    -0.19500
F1450       F  0.92242539  0.98181849  0.99308762    -0.19500
F1451       F  0.96862325  0.00868027  0.03331524    -0.19900
F1452       F  0.88381274  0.97938425  0.54644787    -0.22500
C1453       C  0.95474180  0.88801325  0.59191018    -0.02100
C1454       C  0.66677039  0.63456484  0.83353426    -0.02100
O1455       O  0.68610665  0.67595018  0.67135406    -0.78100
C1456       C  0.77264860  0.72781286  0.59695892     0.83000
O1457       O  0.57754106  0.70055264  0.58068855    -0.79200
O1458       O  0.71447043  0.63960609  0.51986983    -0.80700
O1459       O  0.73151199  0.53686122  0.61418371    -0.80500
O1460       O  0.68388011  0.59943792  0.67473504    -0.79100
Zn1461     Zn  0.67952504  0.69331364  0.62383471     1.55700
O1462       O  0.77233904  0.57323016  0.57514434    -0.80500
Cd1463     Cd  0.67776458  0.58238697  0.62502860     1.59700
Cd1464     Cd  0.61828756  0.64287730  0.56785676     1.59600
O1465       O  0.61741796  0.54517672  0.61575801    -0.80500
O1466       O  0.67736818  0.63902801  0.59627672    -1.91000
Cd1467     Cd  0.73522893  0.63597946  0.56869465     1.59900
O1468       O  0.57913069  0.58164876  0.57450727    -0.80500
O1469       O  0.77877219  0.69254723  0.57906676    -0.79100
C1470       C  0.58438906  0.73206276  0.60206764     0.83400
C1471       C  0.68722746  0.63878627  0.68826086     0.83100
O1472       O  0.73530134  0.73206110  0.61359389    -0.78100
C1473       C  0.76533018  0.53813351  0.59387735     0.83900
O1474       O  0.62173215  0.73320648  0.61982694    -0.78200
C1475       C  0.58410874  0.54731757  0.59436440     0.84000
C1476       C  0.67561741  0.64368154  0.50375246     0.84400
O1477       O  0.63581527  0.64735715  0.51788033    -0.80600
C1478       C  0.71703183  0.62842882  0.86005721    -0.02100
O1479       O  0.95899925  0.83604396  0.93329215    -0.78100
C1480       C  0.85836092  0.78457076  0.85823901     0.83000
O1481       O  0.04726871  0.82741818  0.82765488    -0.79200
O1482       O  0.91004134  0.87518784  0.78053398    -0.80700
O1483       O  0.88839003  0.96908369  0.87523621    -0.80500
O1484       O  0.94736629  0.91201904  0.93348621    -0.79100
Zn1485     Zn  0.95557588  0.82041244  0.88312875     1.55700
O1486       O  0.85034567  0.93147857  0.83548513    -0.80500
Cd1487     Cd  0.94838489  0.93160477  0.88526363     1.59700
Cd1488     Cd  0.00795117  0.88713570  0.82698030     1.59600
O1489       O  0.00555653  0.97489497  0.87999717    -0.80500
O1490       O  0.95215654  0.87728692  0.85667018    -1.91000
Cd1491     Cd  0.89338358  0.87570509  0.82923606     1.59900
O1492       O  0.05055877  0.94340545  0.84181311    -0.80500
O1493       O  0.85251823  0.81949541  0.83960106    -0.79100
C1494       C  0.04372617  0.78990398  0.84413981     0.83400
C1495       C  0.95290877  0.87384535  0.94869925     0.83100
O1496       O  0.89578168  0.78044899  0.87612300    -0.78100
C1497       C  0.85373202  0.96508646  0.85505465     0.83900
O1498       O  0.01215672  0.78353449  0.86610429    -0.78200
C1499       C  0.04269688  0.97491932  0.86272594     0.84000
C1500       C  0.94621046  0.88663843  0.76396913     0.84400
O1501       O  0.98569678  0.89631810  0.77794818    -0.80600
C1502       C  0.90758194  0.88401686  0.61903856    -0.02100
C1503       C  0.43605870  0.87681246  0.61689109    -0.02100
C1504       C  0.16946784  0.62957227  0.85545916    -0.02100
O1505       O  0.16358455  0.57405668  0.52129220    -0.78100
C1506       C  0.26942750  0.54755930  0.59618818     0.83000
O1507       O  0.07531131  0.57974562  0.62187543    -0.79200
O1508       O  0.22513768  0.64805873  0.66442946    -0.80700
O1509       O  0.21181033  0.73129888  0.55950125    -0.80500
O1510       O  0.15868127  0.64992419  0.51342261    -0.79100
Zn1511     Zn  0.17040223  0.57065954  0.57133638     1.55700
O1512       O  0.26229991  0.70249363  0.59693065    -0.80500
Cd1513     Cd  0.16083531  0.67951069  0.55840308     1.59700
Cd1514     Cd  0.12024452  0.63610811  0.62540807     1.59600
O1515       O  0.09771053  0.71197789  0.56445217    -0.80500
O1516       O  0.17098162  0.63077361  0.59215598    -1.91000
Cd1517     Cd  0.23256465  0.64232950  0.61419160     1.59900
O1518       O  0.08084473  0.69472550  0.61626868    -0.80500
O1519       O  0.27731067  0.58762373  0.60752189    -0.79100
C1520       C  0.07936577  0.54275405  0.60560739     0.83400
C1521       C  0.15846454  0.60905073  0.50237776     0.83100
O1522       O  0.23007513  0.53611562  0.58288569    -0.78100
C1523       C  0.24980779  0.73408741  0.57655501     0.83900
O1524       O  0.11437671  0.53525998  0.58714617    -0.78200
C1525       C  0.07355672  0.71847134  0.59012126     0.84000
C1526       C  0.19066918  0.64444466  0.68400537     0.84400
O1527       O  0.14849213  0.63918888  0.67295118    -0.80600
C1528       C  0.21873101  0.62293385  0.82958285    -0.02100
O1529       O  0.39336939  0.78340269  0.82814006    -0.78100
C1530       C  0.44341669  0.88877228  0.76492864     0.83000
O1531       O  0.53630525  0.81945851  0.88430785    -0.79200
O1532       O  0.48973737  0.97701428  0.84224019    -0.80700
O1533       O  0.32906253  0.92242773  0.87208637    -0.80500
O1534       O  0.34546042  0.80677960  0.86757673    -0.79100
Zn1535     Zn  0.44775017  0.82716842  0.82626789     1.55700
O1536       O  0.37094479  0.97122366  0.84109287    -0.80500
Cd1537     Cd  0.37714959  0.86863506  0.88088416     1.59700
Cd1538     Cd  0.49300132  0.87748064  0.88756986     1.59600
O1539       O  0.39251731  0.86954377  0.93087711    -0.80500
O1540       O  0.43743961  0.87680080  0.85627528    -1.91000
Cd1541     Cd  0.43250641  0.93606475  0.83104258     1.59900
O1542       O  0.46998448  0.88083736  0.93527566    -0.80500
O1543       O  0.43359347  0.92489573  0.78083355    -0.79100
C1544       C  0.53525375  0.78825989  0.86252583     0.83400
C1545       C  0.35679935  0.77804729  0.84555327     0.83100
O1546       O  0.45188769  0.85030476  0.77927967    -0.78100
C1547       C  0.33356000  0.96079148  0.85669777     0.83900
O1548       O  0.50462749  0.78920286  0.83916054    -0.78200
C1549       C  0.42972726  0.87638164  0.94843211     0.84000
C1550       C  0.52660422  0.97139882  0.86025291     0.84400
O1551       O  0.53299513  0.93538796  0.87798155    -0.80600
C1552       C  0.38849100  0.88442776  0.59009607    -0.02100
C1553       C  0.37963587  0.87517199  0.99769897    -0.05400
C1554       C  0.42491262  0.88001061  0.98497478     0.00600
C1555       C  0.46212996  0.89112886  0.00717796    -0.08000
C1556       C  0.45273864  0.89055010  0.04115566    -0.05400
C1557       C  0.39807908  0.88350108  0.55108468     0.00500
C1558       C  0.36891369  0.88635180  0.03034371    -0.07900
C1559       C  0.31100596  0.89908852  0.52402620     0.62500
H1560       H  0.35063348  0.86738924  0.98084890     0.13200
H1561       H  0.47255593  0.88950906  0.55593890     0.13200
C1562       C  0.51179543  0.90357087  0.99598895     0.62700
F1563       F  0.30258417  0.92491608  0.00570241    -0.22500
F1564       F  0.29876767  0.92642599  0.54958436    -0.19800
F1565       F  0.27986961  0.86239213  0.52166298    -0.19500
F1566       F  0.50956767  0.94101922  0.97466693    -0.19500
F1567       F  0.53221306  0.86664086  0.98053178    -0.19900
F1568       F  0.54126105  0.91577160  0.02199886    -0.22500
C1569       C  0.30512457  0.65868411  0.83351156    -0.05400
C1570       C  0.25519812  0.66712408  0.82951292     0.00600
C1571       C  0.24692984  0.71452807  0.81799381    -0.08000
C1572       C  0.28080401  0.74893557  0.82559870    -0.05400
C1573       C  0.32505109  0.73890584  0.83858064     0.00500
C1574       C  0.33959120  0.69293760  0.83909699    -0.07900
C1575       C  0.39127222  0.68002229  0.84482302     0.62500
H1576       H  0.31926639  0.62502172  0.82996090     0.13200
H1577       H  0.27394200  0.78476925  0.81920887     0.13200
C1578       C  0.21245203  0.73283933  0.79167537     0.62700
F1579       F  0.39835746  0.63288622  0.84398826    -0.22500
F1580       F  0.40644071  0.69563422  0.87528018    -0.19800
F1581       F  0.41894458  0.69960191  0.82057266    -0.19500
F1582       F  0.19486515  0.77534970  0.80043391    -0.19500
F1583       F  0.17455013  0.70581768  0.78546776    -0.19900
F1584       F  0.23660985  0.73869172  0.76251917    -0.22500
C1585       C  0.31278758  0.53008599  0.86884193    -0.05400
C1586       C  0.31400483  0.49769964  0.84402165     0.00600
C1587       C  0.26008795  0.99943634  0.83383163    -0.08000
C1588       C  0.25431490  0.54142258  0.81476330    -0.05400
C1589       C  0.25102520  0.57715258  0.83903535     0.00500
C1590       C  0.28342986  0.56958068  0.86740913    -0.07900
C1591       C  0.29571840  0.60139816  0.89584583     0.62500
H1592       H  0.33752869  0.52541102  0.88933472     0.13200
H1593       H  0.23353711  0.54273717  0.79276095     0.13200
C1594       C  0.25274329  0.96117018  0.80901278     0.62700
F1595       F  0.29068490  0.57800770  0.92547086    -0.22500
F1596       F  0.26930137  0.64014886  0.89641409    -0.19800
F1597       F  0.34256609  0.61477840  0.89410918    -0.19500
F1598       F  0.24661107  0.91953789  0.82542470    -0.19500
F1599       F  0.29198292  0.95846006  0.78923696    -0.19900
F1600       F  0.21344890  0.96846179  0.78889592    -0.22500
C1601       C  0.16026468  0.64184055  0.74115008    -0.05400
C1602       C  0.19959234  0.64294782  0.72052293     0.00600
C1603       C  0.24468442  0.63484016  0.73519746    -0.08000
C1604       C  0.24710918  0.62402787  0.76908315    -0.05400
C1605       C  0.20686800  0.61977224  0.78987353     0.00500
C1606       C  0.16243360  0.61715578  0.77131788    -0.07900
C1607       C  0.13282495  0.57265340  0.76668851     0.62500
H1608       H  0.12556942  0.64796586  0.73023989     0.13200
H1609       H  0.28163061  0.61881203  0.77982876     0.13200
C1610       C  0.29062708  0.63932717  0.71624276     0.62700
F1611       F  0.11893926  0.56565137  0.73407374    -0.22500
F1612       F  0.09150714  0.57484511  0.78409870    -0.19800
F1613       F  0.15791706  0.53367258  0.77483250    -0.19500
F1614       F  0.29269802  0.68197355  0.70062838    -0.19500
F1615       F  0.29335632  0.60469495  0.69327578    -0.19900
F1616       F  0.33016256  0.63596204  0.73666665    -0.22500
C1617       C  0.32907962  0.76733770  0.57307280    -0.05400
C1618       C  0.28062606  0.77525359  0.57435067     0.00600
C1619       C  0.26523256  0.81909361  0.58398224    -0.08000
C1620       C  0.29978471  0.85308326  0.59106564    -0.05400
C1621       C  0.34947395  0.84361636  0.59387436     0.00500
C1622       C  0.35906555  0.79472721  0.59258000    -0.07900
C1623       C  0.37700480  0.76480762  0.62152136     0.62500
H1624       H  0.34022690  0.73242381  0.56791453     0.13200
H1625       H  0.28608621  0.88635091  0.59554915     0.13200
C1626       C  0.21295849  0.83057243  0.58565022     0.62700
F1627       F  0.41170195  0.73521438  0.61160298    -0.22500
F1628       F  0.34053008  0.73801226  0.63405433    -0.19800
F1629       F  0.39378350  0.78924800  0.64734496    -0.19500
F1630       F  0.19053647  0.80082439  0.60732822    -0.19500
F1631       F  0.19244686  0.82649583  0.55467720    -0.19900
F1632       F  0.20574210  0.87509657  0.59626132    -0.22500
C1633       C  0.33794815  0.01145312  0.57681993    -0.05400
C1634       C  0.30701491  0.51323132  0.59872558     0.00600
C1635       C  0.30528109  0.97719658  0.62584404    -0.08000
C1636       C  0.33609836  0.93995846  0.62202215    -0.05400
C1637       C  0.36702084  0.93483522  0.59538196     0.00500
C1638       C  0.37168138  0.97603040  0.57416369    -0.07900
C1639       C  0.40853418  0.98707053  0.54777286     0.62500
H1640       H  0.33706529  0.03966353  0.55901165     0.13200
H1641       H  0.33335783  0.91261891  0.63933470     0.13200
C1642       C  0.28599836  0.48830194  0.65819416     0.62700
F1643       F  0.41597346  0.03424101  0.54507970    -0.22500
F1644       F  0.39296971  0.97226224  0.51728559    -0.19800
F1645       F  0.45221449  0.96950538  0.55492621    -0.19500
F1646       F  0.31597131  0.50056443  0.68387222    -0.19500
F1647       F  0.26615204  0.44578672  0.66542507    -0.19900
F1648       F  0.24989084  0.52012868  0.65632953    -0.22500
C1649       C  0.15830711  0.65975395  0.91511735    -0.05400
C1650       C  0.17718746  0.62448398  0.89537838     0.00600
C1651       C  0.19106567  0.58414258  0.91567113    -0.08000
C1652       C  0.20064830  0.59026966  0.94997062    -0.05400
C1653       C  0.18428942  0.62803551  0.96716541     0.00500
C1654       C  0.15956337  0.66221183  0.94941668    -0.07900
C1655       C  0.13054117  0.69960411  0.96618845     0.62500
H1656       H  0.13537575  0.68390086  0.90466323     0.13200
H1657       H  0.21646949  0.56300487  0.96477781     0.13200
C1658       C  0.18354738  0.53298910  0.90744422     0.62700
F1659       F  0.10108284  0.72343243  0.94443925    -0.22500
F1660       F  0.09152529  0.70412671  0.47472781    -0.19800
F1661       F  0.06628872  0.63407654  0.49178315    -0.19500
F1662       F  0.19976387  0.50355399  0.93225205    -0.19500
F1663       F  0.20641868  0.51918593  0.87998279    -0.19900
F1664       F  0.13570306  0.52438123  0.90442526    -0.22500
C1665       C  0.47314956  0.88623199  0.67468727    -0.05400
C1666       C  0.42859232  0.87742697  0.65748170     0.00600
C1667       C  0.38885338  0.87061576  0.68105544    -0.08000
C1668       C  0.39645855  0.88158886  0.71472957    -0.05400
C1669       C  0.44027357  0.88988436  0.72868513     0.00500
C1670       C  0.47955702  0.89201312  0.70873773    -0.07900
C1671       C  0.52827589  0.90090434  0.72370124     0.62500
H1672       H  0.50552140  0.88589273  0.66116872     0.13200
H1673       H  0.36763522  0.87934794  0.73216381     0.13200
C1674       C  0.33880878  0.84854712  0.68010266     0.62700
F1675       F  0.56304933  0.90328843  0.70012160    -0.22500
F1676       F  0.53981583  0.86585195  0.74575414    -0.19800
F1677       F  0.52808125  0.94232503  0.74021084    -0.19500
F1678       F  0.33837019  0.81070414  0.70137732    -0.19500
F1679       F  0.32172604  0.83293433  0.65133066    -0.19900
F1680       F  0.30583662  0.87959431  0.69123650    -0.22500
C1681       C  0.04770662  0.55734214  0.85596461    -0.05400
C1682       C  0.07413112  0.01582087  0.86525997     0.00600
C1683       C  0.12025266  0.01544210  0.87864449    -0.08000
C1684       C  0.14000736  0.54858790  0.83842378    -0.05400
C1685       C  0.12810404  0.59136585  0.85167640     0.00500
C1686       C  0.07921007  0.59373880  0.86362388    -0.07900
C1687       C  0.05821838  0.62677044  0.88902348     0.62500
H1688       H  0.01057672  0.55977777  0.86154639     0.13200
H1689       H  0.17387809  0.54416434  0.82999179     0.13200
C1690       C  0.14203308  0.97097182  0.89133834     0.62700
F1691       F  0.07606293  0.61566775  0.91988951    -0.22500
F1692       F  0.00954417  0.62254886  0.89135192    -0.19800
F1693       F  0.06514397  0.67245248  0.88211058    -0.19500
F1694       F  0.14534566  0.94016454  0.86579431    -0.19500
F1695       F  0.11394780  0.95206738  0.91567210    -0.19900
F1696       F  0.18689891  0.97788362  0.90453227    -0.22500
C1697       C  0.12301480  0.76067462  0.85496420    -0.05400
C1698       C  0.07984434  0.75413437  0.83937835     0.00600
C1699       C  0.07212583  0.71393720  0.82117979    -0.08000
C1700       C  0.10588429  0.67828136  0.82351387    -0.05400
C1701       C  0.14609796  0.67916764  0.84543029     0.00500
C1702       C  0.15682666  0.72549364  0.85855699    -0.07900
C1703       C  0.19738919  0.74214435  0.88103103     0.62500
H1704       H  0.12893506  0.79360507  0.86685816     0.13200
H1705       H  0.09807125  0.64766004  0.81006331     0.13200
C1706       C  0.02675047  0.70753033  0.80136555     0.62700
F1707       F  0.21731709  0.78179648  0.86795077    -0.22500
F1708       F  0.23212693  0.71059495  0.88609852    -0.19800
F1709       F  0.18037746  0.75428733  0.91146119    -0.19500
F1710       F  0.02120320  0.74384853  0.77931128    -0.19500
F1711       F  0.98874118  0.70633418  0.82237921    -0.19900
F1712       F  0.02667178  0.66703751  0.78369834    -0.22500
C1713       C  0.89543179  0.90110936  0.71573885    -0.05400
C1714       C  0.94011733  0.88919065  0.72753109     0.00600
C1715       C  0.97446254  0.87589351  0.70494006    -0.08000
C1716       C  0.96324800  0.87809344  0.67088336    -0.05400
C1717       C  0.91720413  0.88664986  0.65786382     0.00500
C1718       C  0.88121454  0.89712446  0.68261111    -0.07900
C1719       C  0.82723254  0.90583811  0.67935248     0.62500
H1720       H  0.86966715  0.91192642  0.73359046     0.13200
H1721       H  0.99092421  0.87244679  0.65437897     0.13200
C1722       C  0.02186266  0.85726586  0.71687997     0.62700
F1723       F  0.80366891  0.87786375  0.70162939    -0.22500
F1724       F  0.80616218  0.89810791  0.64941011    -0.19800
F1725       F  0.81745262  0.95075830  0.68775877    -0.19500
F1726       F  0.01520044  0.82409110  0.74114254    -0.19500
F1727       F  0.04931720  0.89276584  0.72934052    -0.19900
F1728       F  0.04619152  0.83640550  0.69204506    -0.22500
C1729       C  0.73372044  0.54198116  0.84325640    -0.05400
C1730       C  0.75131468  0.58685196  0.84937680     0.00600
C1731       C  0.80227373  0.59001132  0.84482659    -0.08000
C1732       C  0.82948763  0.55153321  0.85316881    -0.05400
C1733       C  0.81883671  0.00265681  0.85333885     0.00500
C1734       C  0.76978023  0.99667358  0.84846693    -0.07900
C1735       C  0.74795716  0.94953511  0.84198335     0.62500
H1736       H  0.69757465  0.53629170  0.84037269     0.13200
H1737       H  0.86757249  0.55569311  0.85539234     0.13200
C1738       C  0.82933388  0.62268391  0.82153016     0.62700
F1739       F  0.69902670  0.95075456  0.84116884    -0.22500
F1740       F  0.76166649  0.91864889  0.86650230    -0.19800
F1741       F  0.76261054  0.93385174  0.81180224    -0.19500
F1742       F  0.85649497  0.65347316  0.83929543    -0.19500
F1743       F  0.80102150  0.64588679  0.79933436    -0.19900
F1744       F  0.86012614  0.59790060  0.80231671    -0.22500
C1745       C  0.75634402  0.70339773  0.83472745    -0.05400
C1746       C  0.75434553  0.67105631  0.86105532     0.00600
C1747       C  0.79049063  0.67817563  0.88673169    -0.08000
C1748       C  0.81886181  0.71842360  0.88615342    -0.05400
C1749       C  0.82090169  0.74791913  0.85881683     0.00500
C1750       C  0.78963913  0.73943953  0.83199759    -0.07900
C1751       C  0.79240037  0.76629949  0.79946955     0.62500
H1752       H  0.73368704  0.69928640  0.81439996     0.13200
H1753       H  0.84323779  0.72472589  0.90653358     0.13200
C1754       C  0.80556295  0.64542452  0.91472691     0.62700
F1755       F  0.76412856  0.74731299  0.77495855    -0.22500
F1756       F  0.83829847  0.76615770  0.78815773    -0.19800
F1757       F  0.77769602  0.81114335  0.80386265    -0.19500
F1758       F  0.85424641  0.64031845  0.91459165    -0.19500
F1759       F  0.78738360  0.60200224  0.91273460    -0.19900
F1760       F  0.79319184  0.66388685  0.94460297    -0.22500
C1761       C  0.51882912  0.91463565  0.60191002    -0.06200
C1762       C  0.47127558  0.92194955  0.61230884     0.00600
C1763       C  0.46378612  0.96973918  0.62314213    -0.08000
C1764       C  0.50422410  0.51835963  0.60425309    -0.05400
C1765       C  0.54945037  0.50896982  0.59404063     0.00500
C1766       C  0.55307810  0.94970133  0.59725991    -0.07900
C1767       C  0.60283824  0.93689945  0.58749918     0.62500
H1768       H  0.53137480  0.88049199  0.59882028     0.13200
H1769       H  0.49571300  0.55442324  0.60785023     0.13200
C1770       C  0.43068464  0.98955965  0.64899724     0.62700
F1771       F  0.60519585  0.89234877  0.57585043    -0.22500
F1772       F  0.63253098  0.94011377  0.61473901    -0.19800
F1773       F  0.61856747  0.96633694  0.56285484    -0.19500
F1774       F  0.40119790  0.95972490  0.66457804    -0.19500
F1775       F  0.40361236  0.02429580  0.63485532    -0.19900
F1776       F  0.46953626  0.53228815  0.66370545    -0.22500
C1777       C  0.53270888  0.79446403  0.58012984    -0.05400
C1778       C  0.54743321  0.76753505  0.60693880     0.00600
C1779       C  0.52207870  0.77044425  0.63631757    -0.08000
C1780       C  0.48413713  0.80167721  0.63764889    -0.05400
C1781       C  0.46547823  0.82771738  0.60985066     0.00500
C1782       C  0.48605759  0.81190047  0.57892440    -0.07900
C1783       C  0.46060925  0.78278243  0.55229337     0.62500
H1784       H  0.55186346  0.79017787  0.55742693     0.13200
H1785       H  0.46945630  0.80458452  0.66164983     0.13200
C1786       C  0.53557140  0.74131697  0.66647211     0.62700
F1787       F  0.46026857  0.73680208  0.56175728    -0.22500
F1788       F  0.48472857  0.78536723  0.52292182    -0.19800
F1789       F  0.41540596  0.79507585  0.54470347    -0.19500
F1790       F  0.58069860  0.75285584  0.67713990    -0.19500
F1791       F  0.53415125  0.69511843  0.65851940    -0.19900
F1792       F  0.50526583  0.74772433  0.69246599    -0.22500
C1793       C  0.67598006  0.58839914  0.95293155    -0.05400
C1794       C  0.67146262  0.63089210  0.96751798     0.00600
C1795       C  0.67962764  0.67046824  0.94868344    -0.08000
C1796       C  0.69234058  0.66591475  0.91549520    -0.05400
C1797       C  0.69932417  0.62323903  0.89856604     0.00500
C1798       C  0.69237143  0.58219025  0.92028457    -0.07900
C1799       C  0.70374422  0.53125496  0.91385045     0.62500
H1800       H  0.66910961  0.55944914  0.96925181     0.13200
H1801       H  0.70261385  0.69765013  0.90441289     0.13200
C1802       C  0.67668540  0.71772165  0.96437680     0.62700
F1803       F  0.69722325  0.50267247  0.94106776    -0.22500
F1804       F  0.75059395  0.52595025  0.90660372    -0.19800
F1805       F  0.67444062  0.51319888  0.89006048    -0.19500
F1806       F  0.67946761  0.73730989  0.47939540    -0.19500
F1807       F  0.60562110  0.71369088  0.46617587    -0.19900
F1808       F  0.68428516  0.75318038  0.94199268    -0.22500
C1809       C  0.83675909  0.50479684  0.61765444    -0.05400
C1810       C  0.80000916  0.49973562  0.59506120     0.00600
C1811       C  0.79889330  0.95570436  0.58688147    -0.08000
C1812       C  0.83521767  0.92256844  0.59061789    -0.05400
C1813       C  0.87489584  0.92803615  0.61230063     0.00500
C1814       C  0.87724984  0.97230437  0.62990627    -0.07900
C1815       C  0.91473836  0.99168751  0.65434504     0.62500
H1816       H  0.83818511  0.53687128  0.63118434     0.13200
H1817       H  0.83007134  0.89044937  0.57834648     0.13200
C1818       C  0.75727554  0.94724395  0.56379307     0.62700
F1819       F  0.92277300  0.53124679  0.64205266    -0.22500
F1820       F  0.95603003  0.96767270  0.65783468    -0.19800
F1821       F  0.89557371  0.99570937  0.68526459    -0.19500
F1822       F  0.75482678  0.98227016  0.54039269    -0.19500
F1823       F  0.71607166  0.94651708  0.58156450    -0.19900
F1824       F  0.76082895  0.90574358  0.54760697    -0.22500
C1825       C  0.80330303  0.79837204  0.62457037    -0.05400
C1826       C  0.80982811  0.76430540  0.60052884     0.00600
C1827       C  0.85448967  0.76339862  0.58507764    -0.08000
C1828       C  0.88601643  0.80038042  0.59122043    -0.05400
C1829       C  0.87818427  0.83503255  0.61537901     0.00500
C1830       C  0.84378529  0.81901399  0.63835287    -0.07900
C1831       C  0.85863934  0.79077531  0.66912574     0.62500
H1832       H  0.77197456  0.79706966  0.63956896     0.13200
H1833       H  0.91540552  0.80159796  0.57534988     0.13200
C1834       C  0.86994456  0.72438230  0.56295344     0.62700
F1835       F  0.86200045  0.74456287  0.66135594    -0.22500
F1836       F  0.82486110  0.79430583  0.69316828    -0.19800
F1837       F  0.90151300  0.80336257  0.68262181    -0.19500
F1838       F  0.83963392  0.72081778  0.53605117    -0.19500
F1839       F  0.87014560  0.68334320  0.58071266    -0.19900
F1840       F  0.91518853  0.73108127  0.55116922    -0.22500
C1841       C  0.59077468  0.51579065  0.82207530    -0.05400
C1842       C  0.57079204  0.51161280  0.85282221     0.00600
C1843       C  0.58143887  0.54480186  0.87653697    -0.08000
C1844       C  0.61166192  0.58198638  0.86800625    -0.05400
C1845       C  0.63450804  0.58780174  0.83683877     0.00500
C1846       C  0.62214554  0.55150731  0.81265113    -0.07900
C1847       C  0.64042911  0.54427985  0.77752520     0.62500
H1848       H  0.55234014  0.01411799  0.80654795     0.13200
H1849       H  0.61497202  0.60887585  0.88587406     0.13200
C1850       C  0.55997791  0.54141356  0.91048644     0.62700
F1851       F  0.62988213  0.98251896  0.78953819    -0.22500
F1852       F  0.68750370  0.53261083  0.77848460    -0.19800
F1853       F  0.63136220  0.58170118  0.75762127    -0.19500
F1854       F  0.57498068  0.50128562  0.92604324    -0.19500
F1855       F  0.51120981  0.54077759  0.90765271    -0.19900
F1856       F  0.57301077  0.57811733  0.93012628    -0.22500
C1857       C  0.64696871  0.71604519  0.85831252    -0.05400
C1858       C  0.63029081  0.67433459  0.84435768     0.00600
C1859       C  0.57891995  0.67240178  0.83996451    -0.08000
C1860       C  0.55053519  0.70621915  0.85422803    -0.05400
C1861       C  0.56881007  0.74877195  0.86364893     0.00500
C1862       C  0.61813022  0.75358978  0.86685546    -0.07900
C1863       C  0.64064276  0.79908573  0.87702298     0.62500
H1864       H  0.68341622  0.72284256  0.85881424     0.13200
H1865       H  0.51235011  0.70266617  0.85266120     0.13200
C1866       C  0.55114266  0.64380984  0.81476859     0.62700
F1867       F  0.68945945  0.79641776  0.87938488    -0.22500
F1868       F  0.62416101  0.81174204  0.90747324    -0.19800
F1869       F  0.62940000  0.83298950  0.85400540    -0.19500
F1870       F  0.52962816  0.60658510  0.82996834    -0.19500
F1871       F  0.57864487  0.62954428  0.78958432    -0.19900
F1872       F  0.51585848  0.66994350  0.79966736    -0.22500
C1873       C  0.65971229  0.67424591  0.73892912    -0.05400
C1874       C  0.68941417  0.64258604  0.72459320     0.00600
C1875       C  0.72056906  0.61754235  0.74507578    -0.08000
C1876       C  0.71399855  0.61891035  0.77953624    -0.05400
C1877       C  0.67925853  0.64577293  0.79524616     0.00500
C1878       C  0.65916440  0.68161299  0.77319906    -0.07900
C1879       C  0.64388830  0.73114664  0.78122934     0.62500
H1880       H  0.63771252  0.69507483  0.72254247     0.13200
H1881       H  0.73433295  0.59503376  0.79317299     0.13200
C1882       C  0.75859449  0.58734083  0.73064761     0.62700
F1883       F  0.64440558  0.75966098  0.75351174    -0.22500
F1884       F  0.67471129  0.75216301  0.80281912    -0.19800
F1885       F  0.59838464  0.73256448  0.79238051    -0.19500
F1886       F  0.78482914  0.61279737  0.70832341    -0.19500
F1887       F  0.73806329  0.55022619  0.71479626    -0.19900
F1888       F  0.78927451  0.57028889  0.75465776    -0.22500
C1889       C  0.98047744  0.80605878  0.61403933    -0.05400
C1890       C  0.98658043  0.84274057  0.59036982     0.00600
C1891       C  0.02337572  0.83469913  0.56644933    -0.08000
C1892       C  0.04463064  0.79105949  0.56524100    -0.05400
C1893       C  0.03915185  0.75722932  0.58966757     0.00500
C1894       C  0.00533545  0.76417565  0.61413713    -0.07900
C1895       C  0.99551048  0.72808340  0.64077695     0.62500
H1896       H  0.95668605  0.80981160  0.63380579     0.13200
H1897       H  0.07047836  0.78524363  0.54629187     0.13200
C1898       C  0.04849553  0.86873514  0.54337186     0.62700
F1899       F  0.95487546  0.73725987  0.65773052    -0.22500
F1900       F  0.03252040  0.72700814  0.66344281    -0.19800
F1901       F  0.98960784  0.68516837  0.62679248    -0.19500
F1902       F  0.09689557  0.86564896  0.54841377    -0.19500
F1903       F  0.03791503  0.91420845  0.54734889    -0.19900
F1904       F  0.03956336  0.85629723  0.51111718    -0.22500
C1905       C  0.97387018  0.97455856  0.59366334    -0.05400
C1906       C  0.99059149  0.92955479  0.60149162     0.00600
C1907       C  0.04018673  0.92863065  0.61384418    -0.08000
C1908       C  0.06653460  0.97013741  0.61386534    -0.05400
C1909       C  0.04333654  0.50631447  0.60805080     0.00500
C1910       C  0.99775908  0.51107564  0.59513652    -0.07900
C1911       C  0.98010925  0.55766964  0.58265134     0.62500
H1912       H  0.93820742  0.97835401  0.58645195     0.13200
H1913       H  0.10345249  0.97016772  0.62182436     0.13200
C1914       C  0.07348983  0.89077285  0.62769329     0.62700
F1915       F  0.93332370  0.55606622  0.57233109    -0.22500
F1916       F  0.00721674  0.57240533  0.55643015    -0.19800
F1917       F  0.98351310  0.58964113  0.60751852    -0.19500
F1918       F  0.11318767  0.88884958  0.60836827    -0.19500
F1919       F  0.05746202  0.84684659  0.63055549    -0.19900
F1920       F  0.08839942  0.90340553  0.65899581    -0.22500
C1921       C  0.90460149  0.86502823  0.53648488    -0.05400
C1922       C  0.93443640  0.89648593  0.55373151     0.00600
C1923       C  0.94989686  0.93156087  0.53092364    -0.08000
C1924       C  0.97503513  0.91071523  0.00126964    -0.05400
C1925       C  0.95014674  0.87534628  0.98522549     0.00500
C1926       C  0.91244780  0.85458210  0.00235058    -0.07900
C1927       C  0.87626366  0.82441155  0.98469569     0.62500
H1928       H  0.87373272  0.85191074  0.54767092     0.13200
H1929       H  0.99760304  0.93301999  0.98659273     0.13200
C1930       C  0.91946491  0.97433863  0.52410400     0.62700
F1931       F  0.83901148  0.80871444  0.50580802    -0.22500
F1932       F  0.89832175  0.78639794  0.97186391    -0.19800
F1933       F  0.85478343  0.84929208  0.95935489    -0.19500
F1934       F  0.89716936  0.97235696  0.49340145    -0.19500
F1935       F  0.94811772  0.01292440  0.52411928    -0.19900
F1936       F  0.89564716  0.98021204  0.04386363    -0.22500
loop_ 
_geom_bond_atom_site_label_1 
_geom_bond_atom_site_label_2 
_geom_bond_distance 
_geom_bond_site_symmetry_2 
_ccdc_geom_bond_type 
C1           C50   1.755       .  S
C1          C438   1.608       .  S
C1          C454   1.622       .  S
C1          C470   1.663       .  S
C2           C26   1.789       .  S
C2          C393   1.624       .  S
C2          C406   1.655       .  S
C2          C425   1.634       .  S
O3           C19   1.275       .  A
O3           Zn9   2.037       .  S
C4           O20   1.274       .  A
C4           O17   1.273       .  A
C4          C374   1.497       .  S
O5           C18   1.282       .  A
O5          Cd12   2.115       .  S
O6           C24   1.270       .  A
O6          Cd15   2.043       .  S
O7           C21   1.276       .  A
O7          Cd11   2.088       .  S
O8           C19   1.281       .  A
O8          Cd11   2.114       .  S
Zn9          O20   2.008       .  S
Zn9          O22   2.011       .  S
Zn9          O14   1.960       .  S
O10          C21   1.274       .  A
O10         Cd15   2.086       .  S
Cd11         O13   2.080       .  S
Cd11         O14   2.008       .  S
Cd12         O16   2.119       .  S
Cd12         O25   2.109       .  S
Cd12         O14   2.025       .  S
O13          C23   1.277       .  A
O14         Cd15   2.006       .  S
Cd15         O17   2.070       .  S
O16          C23   1.282       .  A
C18          O22   1.272       .  A
C18         C326   1.490       .  S
C19         C422   1.491       .  S
C21         C358   1.482   1_545  S
C23         C313   1.492   1_545  S
C24          O25   1.279       .  A
C24         C826   1.479   1_554  S
C26         C278   1.624       .  S
C26         C294   1.630       .  S
C26         C345   1.621       .  S
O27          C43   1.281       .  A
O27         Zn33   2.074       .  S
C28          O44   1.282       .  A
C28          O41   1.268       .  A
C28         C297   1.499       .  S
O29          C42   1.275       .  A
O29         Cd36   2.065       .  S
O30          C48   1.274       .  A
O30         Cd39   2.041       .  S
O31          C45   1.273       .  A
O31         Cd35   2.053       .  S
O32          C43   1.271       .  A
O32         Cd35   2.038       .  S
Zn33         O44   2.072       .  S
Zn33         O46   2.074   1_655  S
Zn33         O38   1.949       .  S
O34          C45   1.267       .  A
O34         Cd39   2.037       .  S
Cd35         O37   2.053   1_655  S
Cd35         O38   1.985       .  S
Cd36         O40   2.096       .  S
Cd36         O49   2.081   1_455  S
Cd36         O38   2.012   1_455  S
O37          C47   1.272       .  A
O38         Cd39   1.992       .  S
Cd39         O41   2.053       .  S
O40          C47   1.276       .  A
C42          O46   1.284       .  A
C42         C246   1.481       .  S
C43         C473   1.489       .  S
C45         C281   1.469       .  S
C47         C230   1.477       .  S
C48          O49   1.275       .  A
C48         C262   1.487       .  S
C50         C265   1.587       .  S
C50         C361   1.599       .  S
C50         C377   1.653       .  S
C51         C100   1.727       .  S
C51         C214   1.664       .  S
C51         C310   1.651       .  S
C51         C329   1.685       .  S
C52          C76   1.770       .  S
C52         C198   1.636       .  S
C52         C233   1.614       .  S
C52         C249   1.630       .  S
O53          C69   1.275       .  A
O53         Zn59   2.064       .  S
C54          O70   1.275       .  A
C54          O67   1.273       .  A
C54         C182   1.468       .  S
O55          C68   1.273       .  A
O55         Cd62   2.066       .  S
O56          C74   1.271       .  A
O56         Cd65   2.063       .  S
O57          C71   1.273       .  A
O57         Cd61   2.077       .  S
O58          C69   1.272       .  A
O58         Cd61   2.027       .  S
Zn59         O70   2.028       .  S
Zn59         O72   2.001       .  S
Zn59         O64   1.960       .  S
O60          C71   1.275       .  A
O60         Cd65   2.058       .  S
Cd61         O63   2.052       .  S
Cd61         O64   1.977       .  S
Cd62         O66   2.083       .  S
Cd62         O75   2.087       .  S
Cd62         O64   2.005       .  S
O63          C73   1.272       .  A
O64         Cd65   1.987       .  S
Cd65         O67   2.063       .  S
O66          C73   1.274       .  A
C68          O72   1.274       .  A
C68         C457   1.470       .  S
C69         C685   1.484   1_554  S
C71         C166   1.479       .  S
C73         C441   1.504       .  S
C74          O75   1.278       .  A
C74         C150   1.501       .  S
C76         C118   1.644       .  S
C76         C137   1.657       .  S
C76         C153   1.648       .  S
O77          C93   1.273       .  A
O77         Zn83   2.009       .  S
C78          O94   1.273       .  A
C78          O91   1.270       .  A
C78         C217   1.470       .  S
O79          C92   1.276       .  A
O79         Cd86   2.089       .  S
O80          C98   1.270       .  A
O80         Cd89   2.027       .  S
O81          C95   1.277       .  A
O81         Cd85   2.098       .  S
O82          C93   1.278       .  A
O82         Cd85   2.088       .  S
Zn83         O94   2.020       .  S
Zn83         O96   2.027       .  S
Zn83         O88   1.935       .  S
O84          C95   1.271       .  A
O84         Cd89   2.046       .  S
Cd85         O87   2.088       .  S
Cd85         O88   2.011       .  S
Cd86         O90   2.071       .  S
Cd86         O99   2.077       .  S
Cd86         O88   2.008       .  S
O87          C97   1.280       .  A
O88         Cd89   1.984       .  S
Cd89         O91   2.058       .  S
O90          C97   1.274       .  A
C92          O96   1.275       .  A
C92         C409   1.481       .  S
C93         C121   1.481       .  S
C95        C1102   1.483       .  S
C97         C102   1.507       .  S
C98          O99   1.274       .  A
C98        C1358   1.469       .  S
C100        C105   1.609       .  S
C100        C169   1.635       .  S
C100        C185   1.607       .  S
C101        C102   1.397       .  A
C101        C106   1.419       .  A
C101        H108   1.081       .  S
C102        C103   1.412       .  A
C103        C110   1.527       .  S
C103        C104   1.409       .  A
C104        C589   1.421       .  A
C104        H593   1.038       .  S
C105        C588   1.414       .  A
C105        C590   1.465       .  A
C106        C591   1.532       .  S
C106        C589   1.466       .  A
C107        C590   1.538       .  S
C107        F112   1.364       .  S
C107        F113   1.382       .  S
C107        F595   1.388   1_554  S
H109        C588   1.045       .  S
C110        F114   1.383       .  S
C110        F115   1.383       .  S
C110        F116   1.383       .  S
F111        C591   1.387       .  S
C117        C118   1.441       .  A
C117        C122   1.405       .  A
C117        H124   1.069       .  S
C118        C119   1.470       .  A
C119        C126   1.530       .  S
C119        C120   1.419       .  A
C120        C121   1.385       .  A
C120        H125   1.086       .  S
C121        C122   1.398       .  A
C122        C123   1.525       .  S
C123        F127   1.384       .  S
C123        F128   1.384       .  S
C123        F129   1.383       .  S
C126        F130   1.385       .  S
C126        F131   1.346       .  S
C126        F132   1.384       .  S
C133        C134   1.387       .  A
C133        C138   1.420       .  A
C133        H140   1.086       .  S
C134       C1063   1.477   1_545  S
C134       C1103   1.393       .  A
C135        C142   1.522       .  S
C135       C1102   1.396       .  A
C135       C1104   1.407       .  A
C136        C137   1.445       .  A
C136       C1103   1.402       .  A
C136        H141   1.066       .  S
C137        C138   1.477       .  A
C138        C139   1.523       .  S
C139        F143   1.382       .  S
C139        F144   1.354       .  S
C139        F145   1.381       .  S
C142        F146   1.383       .  S
C142        F147   1.383       .  S
C142        F148   1.384       .  S
C149        C150   1.404       .  A
C149        C154   1.413       .  A
C149        H156   1.085       .  S
C150        C151   1.421       .  A
C151        C158   1.526       .  S
C151        C152   1.406       .  A
C152        C153   1.432       .  A
C152        H157   1.074       .  S
C153        C154   1.460       .  A
C154        C155   1.547       .  S
C155        F159   1.392       .  S
C155        F160   1.377       .  S
C155        F161   1.374       .  S
C158        F162   1.384       .  S
C158        F163   1.383       .  S
C158        F164   1.385       .  S
C165        C166   1.390       .  A
C165        C170   1.406       .  A
C165        H172   1.087       .  S
C166        C167   1.405       .  A
C167        C174   1.523       .  S
C167        C168   1.412       .  A
C168        C169   1.436       .  A
C168        H173   1.056       .  S
C169        C170   1.461       .  A
C170        C171   1.535       .  S
C171        F175   1.378       .  S
C171        F176   1.389       .  S
C171        F177   1.353       .  S
C174        F178   1.384       .  S
C174        F179   1.383       .  S
C174        F180   1.384       .  S
C181        C186   1.412       .  A
C181       C1150   1.384       .  A
C181        H188   1.085       .  S
C182       C1149   1.386       .  A
C182       C1151   1.405   1_545  A
C183       C1158   1.522       .  S
C183        C184   1.404       .  A
C183       C1150   1.402       .  A
C184        C185   1.413       .  A
C184        H189   1.054       .  S
C185        C186   1.476       .  A
C186        C187   1.540       .  S
C187        F191   1.387       .  S
C187        F192   1.380       .  S
C187        F193   1.363       .  S
C190       C1151   1.519       .  S
C190        F194   1.384       .  S
C190        F195   1.382       .  S
C190        F196   1.381   1_565  S
C197        C198   1.422       .  A
C197        C202   1.394       .  A
C197        H204   1.039       .  S
C198        C199   1.476       .  A
C199        C206   1.542       .  S
C199        C200   1.429       .  A
C200        C201   1.393       .  A
C200        H205   1.082       .  S
C201        C553   1.484       .  S
C201        C202   1.397       .  A
C202        C203   1.536       .  S
C203        F207   1.385       .  S
C203        F692   1.383       .  S
C203        F693   1.384       .  S
C206        F210   1.386       .  S
C206        F211   1.362       .  S
C206        F212   1.379       .  S
F208        C687   1.383       .  S
F209        C687   1.385       .  S
C213        C214   1.457       .  A
C213        C218   1.401       .  A
C213        H220   1.076       .  S
C214        C215   1.497       .  A
C215        C222   1.551       .  S
C215        C216   1.420       .  A
C216        C217   1.377       .  A
C216        H221   1.089       .  S
C217        C218   1.386       .  A
C218        C219   1.521       .  S
C219        F223   1.385       .  S
C219        F224   1.384       .  S
C219        F225   1.383       .  S
C222        F226   1.388       .  S
C222        F227   1.344       .  S
C222        F228   1.386       .  S
C229        C234   1.413       .  A
C229       C1198   1.390       .  A
C229        H236   1.081       .  S
C230        C231   1.398       .  A
C230       C1197   1.384       .  A
C231        C238   1.518       .  S
C231       C1200   1.412       .  A
C232        C233   1.407       .  A
C232       C1199   1.406       .  A
C232        H237   1.008       .  S
C233        C234   1.474       .  A
C234        C235   1.544       .  S
C235        F239   1.379       .  S
C235        F240   1.386       .  S
C235        F241   1.365       .  S
C238        F242   1.382       .  S
C238        F243   1.383       .  S
C238        F244   1.384       .  S
C245        C246   1.383       .  A
C245        C250   1.410       .  A
C245        H252   1.087       .  S
C246        C247   1.402       .  A
C247        C254   1.515       .  S
C247        C248   1.412       .  A
C248        C249   1.433       .  A
C248        H253   1.066       .  S
C249        C250   1.480       .  A
C250        C251   1.535       .  S
C251        F255   1.382       .  S
C251        F256   1.358       .  S
C251        F257   1.383       .  S
C254        F258   1.383       .  S
C254        F259   1.383   1_455  S
C254        F260   1.385       .  S
C261        C262   1.391       .  A
C261        C266   1.401       .  A
C261        H268   1.086       .  S
C262        C263   1.409       .  A
C263        C270   1.519   1_655  S
C263        C264   1.413       .  A
C264        C265   1.417       .  A
C264        H269   1.056       .  S
C265        C266   1.477       .  A
C266        C267   1.558       .  S
C267        F271   1.383       .  S
C267        F272   1.368       .  S
C267        F273   1.382       .  S
C270        F274   1.383       .  S
C270        F275   1.382       .  S
C270        F276   1.377       .  S
C277        C278   1.421       .  A
C277       C1250   1.405       .  A
C277        H284   1.038       .  S
C278        C279   1.481       .  A
C279        C286   1.544       .  S
C279        C280   1.414       .  A
C280       C1249   1.384       .  A
C280        H285   1.083       .  S
C281        C282   1.406       .  A
C281       C1248   1.385       .  A
C282        C283   1.524       .  S
C282       C1245   1.409       .  A
C283        F287   1.385       .  S
C283        F288   1.384       .  S
C283        F289   1.382       .  S
C286        F290   1.370       .  S
C286        F291   1.371       .  S
C286        F292   1.388       .  S
C293        C294   1.413       .  A
C293        C298   1.414       .  A
C293        H300   1.045       .  S
C294        C295   1.474       .  A
C295        C302   1.534       .  S
C295        C296   1.415       .  A
C296        C297   1.388       .  A
C296        H301   1.084       .  S
C297        C298   1.409       .  A
C298        C299   1.524       .  S
C299        F303   1.385       .  S
C299        F304   1.383       .  S
C299        F305   1.383       .  S
C302        F306   1.388       .  S
C302        F307   1.363       .  S
C302        F308   1.378       .  S
C309        C310   1.436       .  A
C309        C314   1.416       .  A
C309        H316   1.067       .  S
C310        C311   1.482       .  A
C311        C318   1.540       .  S
C311       C1280   1.422       .  A
C312        C313   1.381   1_545  A
C312       C1279   1.417   1_545  A
C312        H317   1.087       .  S
C313       C1282   1.405       .  A
C314        C315   1.519       .  S
C314       C1281   1.408       .  A
C315        F319   1.385       .  S
C315        F320   1.382       .  S
C315        F321   1.384       .  S
C318        F322   1.356       .  S
C318        F323   1.383       .  S
C318       F1292   1.386       .  S
F324       C1286   1.387   1_545  S
C325        C326   1.390       .  A
C325        C330   1.421       .  A
C325        H332   1.086       .  S
C326        C327   1.400       .  A
C327        C334   1.527       .  S
C327        C328   1.407       .  A
C328        C329   1.447       .  A
C328        H333   1.066       .  S
C329        C330   1.480       .  A
C330        C331   1.548       .  S
C331        F335   1.387       .  S
C331        F336   1.383       .  S
C331        F337   1.357       .  S
C334        F338   1.383       .  S
C334        F339   1.384       .  S
C334        F340   1.385       .  S
C341        C342   1.386       .  A
C341        C346   1.415       .  A
C341        H348   1.084       .  S
C342        C508   1.488       .  S
C342        C343   1.400       .  A
C343        C350   1.517       .  S
C343        C344   1.415       .  A
C344        C345   1.437       .  A
C344        H349   1.076       .  S
C345        C346   1.482       .  A
C346        C347   1.547       .  S
C347        F351   1.388       .  S
C347        F352   1.369       .  S
C347        F353   1.381       .  S
C350        F356   1.384       .  S
C350        F838   1.383       .  S
C350        F839   1.383       .  S
F354        C834   1.383       .  S
F355        C834   1.383       .  S
C357        C358   1.380   1_545  A
C357       C1330   1.406   1_545  A
C357        H364   1.087       .  S
C358       C1327   1.407       .  A
C359        C366   1.516       .  S
C359        C360   1.415       .  A
C359       C1326   1.405       .  A
C360        C361   1.425       .  A
C360        H365   1.069       .  S
C361        C362   1.480       .  A
C362        C363   1.552       .  S
C362       C1325   1.406       .  A
C363        F368   1.369       .  S
C363        F369   1.380       .  S
C363       F1335   1.379       .  S
C366        F370   1.383       .  S
C366        F371   1.381       .  S
C366        F372   1.384       .  S
F367       C1331   1.381   1_545  S
C373        C374   1.408       .  A
C373        C378   1.399       .  A
C373        H380   1.084       .  S
C374        C375   1.424       .  A
C375        C382   1.524       .  S
C375        C376   1.415       .  A
C376        C377   1.429       .  A
C376        H381   1.060       .  S
C377        C378   1.439       .  A
C378        C379   1.542       .  S
C379        F383   1.386       .  S
C379        F384   1.381       .  S
C379        F385   1.369       .  S
C382        F386   1.383       .  S
C382        F387   1.383       .  S
C382        F388   1.385       .  S
C389        C390   1.392       .  A
C389        C394   1.398       .  A
C389       H1364   1.086       .  S
C390       C1066   1.475   1_545  S
C390        C391   1.405       .  A
C391        C398   1.521       .  S
C391        C392   1.413       .  A
C392        C393   1.424       .  A
C392        H397   1.040       .  S
C393        C394   1.459       .  A
C394        C395   1.536       .  S
C395        F400   1.367       .  S
C395        F401   1.379       .  S
C395       F1367   1.388   1_545  S
H396       C1357   1.085       .  S
C398        F402   1.382   1_545  S
C398        F403   1.384       .  S
C398        F404   1.383       .  S
F399       C1363   1.388       .  S
C405        C406   1.437       .  A
C405        C410   1.406       .  A
C405        H412   1.062       .  S
C406        C407   1.493       .  A
C407        C414   1.547       .  S
C407        C408   1.423       .  A
C408        C409   1.380       .  A
C408        H413   1.082       .  S
C409        C410   1.394       .  A
C410        C411   1.523       .  S
C411        F415   1.382       .  S
C411        F416   1.382       .  S
C411        F417   1.384       .  S
C414        F418   1.372       .  S
C414        F419   1.372       .  S
C414        F420   1.387       .  S
C421        C422   1.388       .  A
C421        C426   1.415       .  A
C421        H428   1.086       .  S
C422        C423   1.403       .  A
C423        C430   1.519       .  S
C423        C424   1.417       .  A
C424        C425   1.426       .  A
C424        H429   1.051       .  S
C425        C426   1.468       .  A
C426        C427   1.528       .  S
C427        F431   1.387       .  S
C427        F432   1.383       .  S
C427        F433   1.358       .  S
C430        F434   1.383       .  S
C430        F435   1.383       .  S
C430        F436   1.383       .  S
C437        C438   1.436       .  A
C437        C442   1.414   1_655  A
C437        H444   1.062       .  S
C438        C439   1.458   1_655  A
C439        C446   1.531       .  S
C439        C440   1.410       .  A
C440        C441   1.396       .  A
C440        H445   1.085       .  S
C441        C442   1.410       .  A
C442        C443   1.521   1_455  S
C443        F447   1.376       .  S
C443        F448   1.383   1_655  S
C443        F449   1.383       .  S
C446        F450   1.386       .  S
C446        F451   1.366       .  S
C446        F452   1.381       .  S
C453        C454   1.420       .  A
C453       C1426   1.409   1_655  A
C453        H460   1.047       .  S
C454        C455   1.483   1_655  A
C455        C462   1.544       .  S
C455        C456   1.411       .  A
C456       C1425   1.378       .  A
C456        H461   1.088       .  S
C457        C458   1.392       .  A
C457       C1424   1.378   1_545  A
C458        C459   1.524   1_455  S
C458       C1421   1.409   1_445  A
C459        F463   1.384       .  S
C459        F464   1.384   1_655  S
C459        F465   1.383       .  S
C462        F466   1.383       .  S
C462        F467   1.350       .  S
C462        F468   1.387       .  S
C469        C470   1.421       .  A
C469        C958   1.417   1_554  A
C469        H476   1.052       .  S
C470        C471   1.447       .  A
C471        C478   1.534       .  S
C471        C956   1.410   1_554  A
C472        C473   1.408       .  A
C472        C955   1.411       .  A
C472        H477   1.085       .  S
C473        C474   1.417       .  A
C474        C475   1.520       .  S
C474        C953   1.418       .  A
C475        F480   1.383       .  S
C475        F481   1.384       .  S
C475        F963   1.383       .  S
C478        F482   1.390   1_554  S
C478        F483   1.378       .  S
C478        F968   1.374       .  S
F479        C959   1.384   1_554  S
F484        C962   1.373       .  S
C485        C534   1.756       .  S
C485        C922   1.599       .  S
C485        C938   1.618       .  S
C485        C954   1.655       .  S
C486        C510   1.780       .  S
C486        C877   1.624       .  S
C486        C890   1.654       .  S
C486        C909   1.622       .  S
O487        C503   1.271       .  A
O487       Zn493   2.008       .  S
C488        O504   1.272       .  A
C488        O501   1.272       .  A
C488        C858   1.499       .  S
O489        C502   1.286       .  A
O489       Cd496   2.119       .  S
O490        C508   1.271       .  A
O490       Cd499   2.035       .  S
O491        C505   1.278       .  A
O491       Cd495   2.099       .  S
O492        C503   1.282       .  A
O492       Cd495   2.114       .  S
Zn493       O504   1.997       .  S
Zn493       O506   1.985       .  S
Zn493       O498   1.955       .  S
O494        C505   1.275       .  A
O494       Cd499   2.084       .  S
Cd495       O497   2.084       .  S
Cd495       O498   2.009       .  S
Cd496       O500   2.135       .  S
Cd496       O509   2.136       .  S
Cd496       O498   2.025       .  S
O497        C507   1.277       .  A
O498       Cd499   2.001       .  S
Cd499       O501   2.077       .  S
O500        C507   1.285       .  A
C502        O506   1.265       .  A
C502        C810   1.514       .  S
C503        C906   1.484       .  S
C505        C842   1.485   1_545  S
C507        C797   1.499   1_545  S
C508        O509   1.282       .  A
C510        C762   1.615       .  S
C510        C778   1.619       .  S
C510        C829   1.627       .  S
O511        C527   1.280       .  A
O511       Zn517   2.071       .  S
C512        O528   1.282       .  A
C512        O525   1.268       .  A
C512        C781   1.492       .  S
O513        C526   1.271       .  A
O513       Cd520   2.051   1_455  S
O514        C532   1.273       .  A
O514       Cd523   2.053       .  S
O515        C529   1.273       .  A
O515       Cd519   2.049       .  S
O516        C527   1.272       .  A
O516       Cd519   2.049       .  S
Zn517       O528   2.058       .  S
Zn517       O530   2.060   1_655  S
Zn517       O522   1.943       .  S
O518        C529   1.268       .  A
O518       Cd523   2.042       .  S
Cd519       O521   2.053       .  S
Cd519       O522   1.980       .  S
Cd520       O524   2.051   1_655  S
Cd520       O533   2.046       .  S
Cd520       O522   2.001       .  S
O521        C531   1.274   1_655  A
O522       Cd523   1.992       .  S
Cd523       O525   2.041       .  S
O524        C531   1.269       .  A
C526        O530   1.282       .  A
C526        C730   1.473       .  S
C527        C957   1.490       .  S
C529        C765   1.474       .  S
C531        C714   1.482       .  S
C532        O533   1.269       .  A
C532        C746   1.479       .  S
C534        C749   1.581       .  S
C534        C845   1.602       .  S
C534        C861   1.653       .  S
C535        C584   1.702       .  S
C535        C698   1.656       .  S
C535        C794   1.645       .  S
C535        C813   1.675       .  S
C536        C560   1.769       .  S
C536        C682   1.642       .  S
C536        C717   1.618       .  S
C536        C733   1.601       .  S
O537        C553   1.275       .  A
O537       Zn543   2.034       .  S
C538        O554   1.273       .  A
C538        O551   1.273       .  A
C538        C666   1.466       .  S
O539        C552   1.276       .  A
O539       Cd546   2.084       .  S
O540        C558   1.271       .  A
O540       Cd549   2.058       .  S
O541        C555   1.269       .  A
O541       Cd545   2.048       .  S
O542        C553   1.268       .  A
O542       Cd545   2.038       .  S
Zn543       O554   2.014       .  S
Zn543       O556   2.000       .  S
Zn543       O548   1.941       .  S
O544        C555   1.275       .  A
O544       Cd549   2.067       .  S
Cd545       O547   2.055       .  S
Cd545       O548   1.974       .  S
Cd546       O550   2.097       .  S
Cd546       O559   2.123       .  S
Cd546       O548   2.011       .  S
O547        C557   1.274       .  A
O548       Cd549   1.981       .  S
Cd549       O551   2.065       .  S
O550        C557   1.279       .  A
C552        O556   1.274       .  A
C552        C941   1.473       .  S
C555        C650   1.470       .  S
C557        C925   1.498       .  S
C558        O559   1.283       .  A
C558        C634   1.512       .  S
C560        C602   1.635       .  S
C560        C621   1.651       .  S
C560        C637   1.651       .  S
O561        C577   1.273       .  A
O561       Zn567   2.018       .  S
C562        O578   1.273       .  A
C562        O575   1.276       .  A
C562        C701   1.480       .  S
O563        C576   1.277       .  A
O563       Cd570   2.100       .  S
O564        C582   1.274       .  A
O564       Cd573   2.057       .  S
O565        C579   1.275       .  A
O565       Cd569   2.087       .  S
O566        C577   1.277       .  A
O566       Cd569   2.088       .  S
Zn567       O578   2.030       .  S
Zn567       O580   2.003       .  S
Zn567       O572   1.952       .  S
O568        C579   1.274       .  A
O568       Cd573   2.072       .  S
Cd569       O571   2.066       .  S
Cd569       O572   2.007       .  S
Cd570       O574   2.072       .  S
Cd570       O583   2.110       .  S
Cd570       O572   2.021       .  S
O571        C581   1.277       .  A
O572       Cd573   1.983       .  S
Cd573       O575   2.065       .  S
O574        C581   1.274       .  A
C576        O580   1.273       .  A
C576        C893   1.479       .  S
C577        C605   1.490       .  S
C579       C1586   1.479       .  S
C581        C586   1.500       .  S
C582        O583   1.278       .  A
C582       C1842   1.488       .  S
C584        C589   1.615       .  S
C584        C653   1.652       .  S
C584        C669   1.610       .  S
C585        C586   1.396       .  A
C585        C590   1.407   1_556  A
C585        H592   1.085       .  S
C586        C587   1.414   1_556  A
C587        C594   1.523   1_554  S
C587        C588   1.412       .  A
C591        F596   1.365       .  S
C591        F597   1.378       .  S
C594        F598   1.384       .  S
C594        F599   1.383       .  S
C594        F600   1.382   1_556  S
C601        C602   1.437       .  A
C601        C606   1.411       .  A
C601        H608   1.072       .  S
C602        C603   1.455       .  A
C603        C610   1.525       .  S
C603        C604   1.413       .  A
C604        C605   1.394       .  A
C604        H609   1.086       .  S
C605        C606   1.411       .  A
C606        C607   1.524       .  S
C607        F611   1.384       .  S
C607        F612   1.384       .  S
C607        F613   1.382       .  S
C610        F614   1.381       .  S
C610        F615   1.357       .  S
C610        F616   1.386       .  S
C617        C618   1.381   1_545  A
C617        C622   1.416       .  A
C617        H624   1.087       .  S
C618       C1547   1.483       .  S
C618       C1587   1.395       .  A
C619        C626   1.524       .  S
C619       C1586   1.392       .  A
C619       C1588   1.404       .  A
C620       C1587   1.410   1_545  A
C620        C621   1.441       .  A
C620        H625   1.059       .  S
C621        C622   1.474       .  A
C622        C623   1.518       .  S
C623        F627   1.382       .  S
C623        F628   1.354       .  S
C623        F629   1.383       .  S
C626        F630   1.384       .  S
C626        F631   1.382       .  S
C626        F632   1.385       .  S
C633        C634   1.404       .  A
C633        C638   1.420       .  A
C633        H640   1.085       .  S
C634        C635   1.424       .  A
C635        C642   1.526       .  S
C635        C636   1.408       .  A
C636        C637   1.425       .  A
C636        H641   1.068       .  S
C637        C638   1.452       .  A
C638        C639   1.522       .  S
C639        F643   1.388       .  S
C639        F644   1.381       .  S
C639        F645   1.355       .  S
C642        F646   1.384       .  S
C642        F647   1.383       .  S
C642        F648   1.386       .  S
C649        C650   1.384       .  A
C649        C654   1.408       .  A
C649        H656   1.084       .  S
C650        C651   1.402       .  A
C651        C658   1.520       .  S
C651        C652   1.411       .  A
C652        C653   1.440       .  A
C652        H657   1.059       .  S
C653        C654   1.462       .  A
C654        C655   1.549       .  S
C655        F659   1.389       .  S
C655        F660   1.381       .  S
C655        F661   1.361       .  S
C658        F662   1.384       .  S
C658        F663   1.383       .  S
C658        F664   1.383       .  S
C665       C1634   1.388       .  A
C665        C670   1.410       .  A
C665        H672   1.086       .  S
C666       C1633   1.387       .  A
C666       C1635   1.402   1_545  A
C667       C1642   1.522       .  S
C667       C1634   1.404       .  A
C667        C668   1.403       .  A
C668        C669   1.402       .  A
C668        H673   1.048       .  S
C669        C670   1.467       .  A
C670        C671   1.531       .  S
C671        F675   1.386       .  S
C671        F676   1.382       .  S
C671        F677   1.364       .  S
C674       C1635   1.522       .  S
C674        F678   1.383       .  S
C674        F679   1.383       .  S
C674        F680   1.382   1_565  S
C681        C682   1.429       .  A
C681        C686   1.410       .  A
C681        H688   1.060       .  S
C682        C683   1.440       .  A
C683        C690   1.579       .  S
C683        C684   1.417       .  A
C684        C685   1.407       .  A
C684        H689   1.084       .  S
C685        C686   1.414       .  A
C686        C687   1.518       .  S
C687        F691   1.381       .  S
C690        F694   1.373       .  S
C690        F695   1.388       .  S
C690        F696   1.381       .  S
C697        C698   1.450       .  A
C697        C702   1.403       .  A
C697        H704   1.073       .  S
C698        C699   1.456       .  A
C699        C706   1.549       .  S
C699        C700   1.415       .  A
C700        C701   1.398       .  A
C700        H705   1.085       .  S
C701        C702   1.401       .  A
C702        C703   1.522       .  S
C703        F707   1.384       .  S
C703        F708   1.384       .  S
C703        F709   1.382       .  S
C706        F710   1.391       .  S
C706        F711   1.369       .  S
C706        F712   1.380       .  S
C713       C1682   1.386       .  A
C713        C718   1.410       .  A
C713        H720   1.088       .  S
C714       C1681   1.389       .  A
C714        C715   1.401       .  A
C715        C722   1.524       .  S
C715       C1684   1.406       .  A
C716       C1683   1.417       .  A
C716        C717   1.430       .  A
C716        H721   1.072       .  S
C717        C718   1.472       .  A
C718        C719   1.540       .  S
C719        F723   1.387       .  S
C719        F724   1.383       .  S
C719        F725   1.359       .  S
C722        F726   1.383       .  S
C722        F727   1.384       .  S
C722        F728   1.382       .  S
C729        C730   1.384       .  A
C729        C734   1.402       .  A
C729        H736   1.086       .  S
C730        C731   1.407       .  A
C731        C738   1.514       .  S
C731        C732   1.416       .  A
C732        C733   1.417       .  A
C732        H737   1.056       .  S
C733        C734   1.451       .  A
C734        C735   1.505       .  S
C735        F739   1.385       .  S
C735        F740   1.358       .  S
C735        F741   1.381       .  S
C738        F742   1.382       .  S
C738        F743   1.384       .  S
C738        F744   1.384       .  S
C745        C746   1.389       .  A
C745        C750   1.402       .  A
C745        H752   1.086       .  S
C746        C747   1.408       .  A
C747        C754   1.520   1_655  S
C747        C748   1.407       .  A
C748        C749   1.407       .  A
C748        H753   1.047       .  S
C749        C750   1.474       .  A
C750        C751   1.553       .  S
C751        F755   1.385       .  S
C751        F756   1.368       .  S
C751        F757   1.382       .  S
C754        F758   1.383   1_455  S
C754        F759   1.383       .  S
C754        F760   1.380       .  S
C761        C762   1.418       .  A
C761       C1734   1.413   1_545  A
C761        H768   1.049       .  S
C762        C763   1.467       .  A
C763        C770   1.544       .  S
C763        C764   1.398       .  A
C764       C1733   1.387       .  A
C764        H769   1.086       .  S
C765       C1732   1.391       .  A
C765        C766   1.412       .  A
C766        C767   1.523       .  S
C766       C1729   1.412       .  A
C767        F771   1.385       .  S
C767        F772   1.384       .  S
C767        F773   1.383       .  S
C770        F774   1.377       .  S
C770        F775   1.367       .  S
C770        F776   1.389       .  S
C777        C778   1.408       .  A
C777        C782   1.410       .  A
C777        H784   1.046       .  S
C778        C779   1.467       .  A
C779        C786   1.529       .  S
C779        C780   1.408       .  A
C780        C781   1.389       .  A
C780        H785   1.086       .  S
C781        C782   1.412       .  A
C782        C783   1.525       .  S
C783        F787   1.385       .  S
C783        F788   1.383       .  S
C783        F789   1.383       .  S
C786        F790   1.388       .  S
C786        F791   1.357       .  S
C786        F792   1.381       .  S
C793        C794   1.438       .  A
C793        C798   1.408       .  A
C793        H800   1.069       .  S
C794        C795   1.483       .  A
C795        C802   1.542       .  S
C795       C1764   1.413       .  A
C796       C1763   1.421   1_545  A
C796        C797   1.385   1_545  A
C796        H801   1.087       .  S
C797       C1766   1.407       .  A
C798        C799   1.525       .  S
C798       C1765   1.403       .  A
C799        F803   1.384       .  S
C799        F804   1.382       .  S
C799        F805   1.383       .  S
C802        F806   1.359       .  S
C802        F807   1.383       .  S
C802       F1776   1.388       .  S
F808       C1770   1.386   1_545  S
C809        C810   1.380       .  A
C809        C814   1.424       .  A
C809        H816   1.086       .  S
C810        C811   1.410       .  A
C811        C818   1.526       .  S
C811        C812   1.413       .  A
C812        C813   1.440       .  A
C812        H817   1.061       .  S
C813        C814   1.508       .  A
C814        C815   1.571       .  S
C815        F819   1.389       .  S
C815        F820   1.386       .  S
C815        F821   1.353       .  S
C818        F822   1.384       .  S
C818        F823   1.383       .  S
C818        F824   1.384       .  S
C825        C826   1.388       .  A
C825        C830   1.418       .  A
C825        H832   1.082       .  S
C826        C827   1.395       .  A
C827        C834   1.518       .  S
C827        C828   1.407       .  A
C828        C829   1.437       .  A
C828        H833   1.076       .  S
C829        C830   1.484       .  A
C830        C831   1.551       .  S
C831        F835   1.386       .  S
C831        F836   1.369       .  S
C831        F837   1.375       .  S
C834        F840   1.384       .  S
C841        C842   1.382   1_545  A
C841       C1814   1.408   1_545  A
C841        H848   1.087       .  S
C842       C1811   1.407       .  A
C843        C850   1.516       .  S
C843       C1810   1.415       .  A
C843        C844   1.418       .  A
C844        C845   1.424       .  A
C844        H849   1.075       .  S
C845        C846   1.479       .  A
C846        C847   1.552       .  S
C846       C1809   1.408       .  A
C847       F1819   1.383       .  S
C847        F852   1.369       .  S
C847        F853   1.382       .  S
C850        F854   1.381       .  S
C850        F855   1.384       .  S
C850        F856   1.383       .  S
F851       C1815   1.380   1_545  S
C857        C858   1.404       .  A
C857        C862   1.394       .  A
C857        H864   1.084       .  S
C858        C859   1.425       .  A
C859        C866   1.522       .  S
C859        C860   1.422       .  A
C860        C861   1.430       .  A
C860        H865   1.062       .  S
C861        C862   1.445       .  A
C862        C863   1.549       .  S
C863        F867   1.389       .  S
C863        F868   1.378       .  S
C863        F869   1.370       .  S
C866        F870   1.384       .  S
C866        F871   1.383       .  S
C866        F872   1.385       .  S
C873        C874   1.392       .  A
C873        C878   1.398       .  A
C873       H1848   1.086       .  S
C874       C1550   1.475   1_545  S
C874        C875   1.410       .  A
C875        C882   1.521   1_545  S
C875        C876   1.410       .  A
C876        C877   1.409       .  A
C876        H881   1.034       .  S
C877        C878   1.459       .  A
C878        C879   1.537       .  S
C879       F1851   1.388   1_545  S
C879        F884   1.370       .  S
C879        F885   1.378       .  S
H880       C1841   1.081       .  S
C882        F886   1.383       .  S
C882        F887   1.382   1_565  S
C882        F888   1.384   1_565  S
F883       C1847   1.386       .  S
C889        C890   1.440       .  A
C889        C894   1.405       .  A
C889        H896   1.059       .  S
C890        C891   1.489       .  A
C891        C898   1.540       .  S
C891        C892   1.425       .  A
C892        C893   1.380       .  A
C892        H897   1.081       .  S
C893        C894   1.388       .  A
C894        C895   1.523       .  S
C895        F899   1.381       .  S
C895        F900   1.384       .  S
C895        F901   1.383       .  S
C898        F902   1.368       .  S
C898        F903   1.375       .  S
C898        F904   1.387       .  S
C905        C906   1.390       .  A
C905        C910   1.415       .  A
C905        H912   1.086       .  S
C906        C907   1.400       .  A
C907        C914   1.520       .  S
C907        C908   1.411       .  A
C908        C909   1.423       .  A
C908        H913   1.048       .  S
C909        C910   1.468       .  A
C910        C911   1.535       .  S
C911        F915   1.386       .  S
C911        F916   1.383       .  S
C911        F917   1.367       .  S
C914        F918   1.384       .  S
C914        F919   1.383       .  S
C914        F920   1.382       .  S
C921        C922   1.421       .  A
C921        C926   1.404       .  A
C921        H928   1.053       .  S
C922        C923   1.465   1_655  A
C923        C930   1.537       .  S
C923        C924   1.414       .  A
C924        C925   1.396       .  A
C924        H929   1.085       .  S
C925        C926   1.405   1_455  A
C926        C927   1.515       .  S
C927        F931   1.383       .  S
C927        F932   1.383   1_655  S
C927        F933   1.380       .  S
C930        F934   1.385       .  S
C930        F935   1.365       .  S
C930        F936   1.382       .  S
C937        C938   1.419       .  A
C937       C1910   1.404       .  A
C937        H944   1.047       .  S
C938        C939   1.485   1_655  A
C939        C946   1.548       .  S
C939        C940   1.414       .  A
C940       C1909   1.379       .  A
C940        H945   1.088       .  S
C941       C1908   1.378   1_545  A
C941        C942   1.392       .  A
C942        C943   1.519   1_455  S
C942       C1905   1.408   1_445  A
C943        F947   1.385       .  S
C943        F948   1.383   1_655  S
C943        F949   1.379       .  S
C946        F950   1.385       .  S
C946        F951   1.354       .  S
C946        F952   1.384       .  S
C953        C954   1.417       .  A
C953        H960   1.060       .  S
C954        C955   1.437       .  A
C955        C962   1.536       .  S
C956        C957   1.402       .  A
C956        H961   1.085       .  S
C957        C958   1.413       .  A
C958        C959   1.521       .  S
C959        F964   1.382       .  S
C959        F965   1.384       .  S
C962        F966   1.388       .  S
C962        F967   1.383       .  S
C969       C1018   1.750       .  S
C969       C1406   1.598       .  S
C969       C1422   1.617       .  S
C969       C1438   1.657       .  S
C970        C994   1.787       .  S
C970       C1361   1.604       .  S
C970       C1374   1.632       .  S
C970       C1393   1.623       .  S
O971        C987   1.271       .  A
O971       Zn977   2.011       .  S
C972        O988   1.268       .  A
C972        O985   1.274       .  A
C972       C1342   1.496       .  S
O973        C986   1.283       .  A
O973       Cd980   2.127       .  S
O974        C992   1.273       .  A
O974       Cd983   2.054       .  S
O975        C989   1.275       .  A
O975       Cd979   2.072       .  S
O976        C987   1.279       .  A
O976       Cd979   2.105       .  S
Zn977       O988   1.966       .  S
Zn977       O990   1.975       .  S
Zn977       O982   1.946       .  S
O978        C989   1.277       .  A
O978       Cd983   2.094       .  S
Cd979       O981   2.081       .  S
Cd979       O982   2.007       .  S
Cd980       O984   2.141       .  S
Cd980       O993   2.119       .  S
Cd980       O982   2.027       .  S
O981        C991   1.276       .  A
O982       Cd983   2.013       .  S
Cd983       O985   2.094       .  S
O984        C991   1.286       .  A
C986        O990   1.267       .  A
C986       C1294   1.484       .  S
C987       C1390   1.484       .  S
C989       C1326   1.478       .  S
C991       C1281   1.500       .  S
C992        O993   1.281       .  A
C992       C1794   1.483   1_554  S
C994       C1246   1.620       .  S
C994       C1262   1.618       .  S
C994       C1313   1.627       .  S
O995       C1011   1.282       .  A
O995      Zn1001   2.086       .  S
C996       O1012   1.288       .  A
C996       O1009   1.267       .  A
C996       C1265   1.494       .  S
O997       C1010   1.271       .  A
O997      Cd1004   2.050   1_455  S
O998       C1016   1.272       .  A
O998      Cd1007   2.043       .  S
O999       C1013   1.272       .  A
O999      Cd1003   2.052       .  S
O1000      C1011   1.271       .  A
O1000     Cd1003   2.038       .  S
Zn1001     O1012   2.093       .  S
Zn1001     O1014   2.096   1_655  S
Zn1001     O1006   1.949       .  S
O1002      C1013   1.269       .  A
O1002     Cd1007   2.050       .  S
Cd1003     O1005   2.035   1_655  S
Cd1003     O1006   1.977       .  S
Cd1004     O1008   2.054   1_655  S
Cd1004     O1017   2.062       .  S
Cd1004     O1006   2.002       .  S
O1005      C1015   1.271       .  A
O1006     Cd1007   1.988       .  S
Cd1007     O1009   2.032       .  S
O1008      C1015   1.270       .  A
C1010      O1014   1.287       .  A
C1010      C1214   1.482       .  S
C1011      C1441   1.491       .  S
C1013      C1249   1.472   1_565  S
C1015      C1198   1.477   1_565  S
C1016      O1017   1.271       .  A
C1016      C1230   1.484       .  S
C1018      C1233   1.587       .  S
C1018      C1329   1.603       .  S
C1018      C1345   1.652       .  S
C1019      C1068   1.717       .  S
C1019      C1182   1.654       .  S
C1019      C1278   1.648       .  S
C1019      C1297   1.689       .  S
C1020      C1044   1.780       .  S
C1020      C1166   1.649       .  S
C1020      C1201   1.636       .  S
C1020      C1217   1.609       .  S
O1021      C1037   1.275       .  A
O1021     Zn1027   2.050       .  S
C1022      O1038   1.272       .  A
C1022      O1035   1.275       .  A
C1022      C1150   1.464       .  S
O1023      C1036   1.275       .  A
O1023     Cd1030   2.067       .  S
O1024      C1042   1.275       .  A
O1024     Cd1033   2.085       .  S
O1025      C1039   1.265       .  A
O1025     Cd1029   2.023       .  S
O1026      C1037   1.264       .  A
O1026     Cd1029   2.017       .  S
Zn1027     O1038   2.001       .  S
Zn1027     O1040   1.989       .  S
Zn1027     O1032   1.942       .  S
O1028      C1039   1.279       .  A
O1028     Cd1033   2.079       .  S
Cd1029     O1031   2.044       .  S
Cd1029     O1032   1.967       .  S
Cd1030     O1034   2.092       .  S
Cd1030     O1043   2.104       .  S
Cd1030     O1032   1.996       .  S
O1031      C1041   1.272       .  A
O1032     Cd1033   1.984       .  S
Cd1033     O1035   2.071       .  S
O1034      C1041   1.277       .  A
C1036      O1040   1.273       .  A
C1036      C1425   1.468       .  S
C1037      C1653   1.487   1_554  S
C1039      C1134   1.465       .  S
C1041      C1409   1.496       .  S
C1042      O1043   1.281       .  A
C1042      C1118   1.505       .  S
C1044      C1086   1.633       .  S
C1044      C1105   1.629       .  S
C1044      C1121   1.646       .  S
O1045      C1061   1.275       .  A
O1045     Zn1051   2.038       .  S
C1046      O1062   1.273       .  A
C1046      O1059   1.268       .  A
C1046      C1185   1.458       .  S
O1047      C1060   1.273       .  A
O1047     Cd1054   2.088       .  S
O1048      C1066   1.269       .  A
O1048     Cd1057   2.019       .  S
O1049      C1063   1.276       .  A
O1049     Cd1053   2.099       .  S
O1050      C1061   1.279       .  A
O1050     Cd1053   2.087       .  S
Zn1051     O1062   2.011       .  S
Zn1051     O1064   2.031       .  S
Zn1051     O1056   1.933       .  S
O1052      C1063   1.270       .  A
O1052     Cd1057   2.050       .  S
Cd1053     O1055   2.077       .  S
Cd1053     O1056   2.005       .  S
Cd1054     O1058   2.060       .  S
Cd1054     O1067   2.082       .  S
Cd1054     O1056   2.006       .  S
O1055      C1065   1.279       .  A
O1056     Cd1057   1.986       .  S
Cd1057     O1059   2.035       .  S
O1058      C1065   1.273       .  A
C1060      O1064   1.277       .  A
C1060      C1377   1.481       .  S
C1061      C1089   1.502       .  S
C1065      C1070   1.500       .  S
C1066      O1067   1.275       .  A
C1068      C1073   1.604       .  S
C1068      C1137   1.621       .  S
C1068      C1153   1.606       .  S
C1069      C1070   1.396       .  A
C1069      C1074   1.409       .  A
C1069      H1076   1.085       .  S
C1070      C1071   1.415       .  A
C1071      C1078   1.527       .  S
C1071      C1072   1.410       .  A
C1072      C1557   1.413       .  A
C1072      H1561   1.044       .  S
C1073      C1556   1.413       .  A
C1073      C1558   1.463       .  A
C1074      C1559   1.536       .  S
C1074      C1557   1.464       .  A
C1075      C1558   1.533       .  S
C1075      F1563   1.387       .  S
C1075      F1080   1.363       .  S
C1075      F1081   1.382       .  S
H1077      C1556   1.044       .  S
C1078      F1082   1.383       .  S
C1078      F1083   1.384       .  S
C1078      F1084   1.382       .  S
F1079      C1559   1.388       .  S
C1085      C1086   1.436       .  A
C1085      C1090   1.423       .  A
C1085      H1092   1.068       .  S
C1086      C1087   1.429       .  A
C1087      C1094   1.521       .  S
C1087      C1088   1.411       .  A
C1088      C1089   1.405       .  A
C1088      H1093   1.083       .  S
C1089      C1090   1.423       .  A
C1090      C1091   1.524       .  S
C1091      F1095   1.385       .  S
C1091      F1096   1.384       .  S
C1091      F1097   1.383       .  S
C1094      F1098   1.383       .  S
C1094      F1099   1.362       .  S
C1094      F1100   1.386       .  S
C1101      C1102   1.388       .  A
C1101      C1106   1.416       .  A
C1101      H1108   1.087       .  S
C1103      C1110   1.526   1_545  S
C1104      C1105   1.433       .  A
C1104      H1109   1.065       .  S
C1105      C1106   1.474       .  A
C1106      C1107   1.538       .  S
C1107      F1111   1.386       .  S
C1107      F1112   1.368       .  S
C1107      F1113   1.381       .  S
C1110      F1114   1.384       .  S
C1110      F1115   1.383       .  S
C1110      F1116   1.385       .  S
C1117      C1118   1.405       .  A
C1117      C1122   1.415       .  A
C1117      H1124   1.085       .  S
C1118      C1119   1.424       .  A
C1119      C1126   1.522       .  S
C1119      C1120   1.415       .  A
C1120      C1121   1.427       .  A
C1120      H1125   1.075       .  S
C1121      C1122   1.432       .  A
C1122      C1123   1.526       .  S
C1123      F1127   1.389       .  S
C1123      F1128   1.380       .  S
C1123      F1129   1.369       .  S
C1126      F1130   1.383       .  S
C1126      F1131   1.381       .  S
C1126      F1132   1.385       .  S
C1133      C1134   1.389       .  A
C1133      C1138   1.398       .  A
C1133      H1140   1.087       .  S
C1134      C1135   1.405       .  A
C1135      C1142   1.523       .  S
C1135      C1136   1.408       .  A
C1136      C1137   1.439       .  A
C1136      H1141   1.058       .  S
C1137      C1138   1.454       .  A
C1138      C1139   1.539       .  S
C1139      F1143   1.378       .  S
C1139      F1144   1.389       .  S
C1139      F1145   1.356       .  S
C1142      F1146   1.384       .  S
C1142      F1147   1.383       .  S
C1142      F1148   1.384       .  S
C1149      C1154   1.409   1_545  A
C1149      H1156   1.086       .  S
C1151      C1152   1.406       .  A
C1152      C1153   1.409       .  A
C1152      H1157   1.059       .  S
C1153      C1154   1.468       .  A
C1154      C1155   1.533       .  S
C1155      F1159   1.387   1_565  S
C1155      F1160   1.382       .  S
C1155      F1161   1.364       .  S
C1158      F1162   1.382       .  S
C1158      F1163   1.383       .  S
C1158      F1164   1.381       .  S
C1165      C1166   1.437       .  A
C1165      C1170   1.392       .  A
C1165      H1172   1.053       .  S
C1166      C1167   1.460       .  A
C1167      C1174   1.515       .  S
C1167      C1168   1.419       .  A
C1168      C1169   1.391       .  A
C1168      H1173   1.087       .  S
C1169      C1521   1.478       .  S
C1169      C1170   1.390       .  A
C1170      C1171   1.524       .  S
C1171      F1175   1.381       .  S
C1171      F1660   1.383       .  S
C1171      F1661   1.385       .  S
C1174      F1178   1.357       .  S
C1174      F1179   1.378       .  S
C1174      F1180   1.390       .  S
F1176      C1655   1.383       .  S
F1177      C1655   1.384       .  S
C1181      C1182   1.456       .  A
C1181      C1186   1.399       .  A
C1181      H1188   1.076       .  S
C1182      C1183   1.495       .  A
C1183      C1190   1.553       .  S
C1183      C1184   1.412       .  A
C1184      C1185   1.374       .  A
C1184      H1189   1.090       .  S
C1185      C1186   1.385       .  A
C1186      C1187   1.519       .  S
C1187      F1191   1.385       .  S
C1187      F1192   1.382       .  S
C1187      F1193   1.383       .  S
C1190      F1194   1.389       .  S
C1190      F1195   1.339       .  S
C1190      F1196   1.386       .  S
C1197      C1202   1.413       .  A
C1197      H1204   1.088       .  S
C1198      C1199   1.397       .  A
C1199      C1206   1.525   1_545  S
C1200      C1201   1.432       .  A
C1200      H1205   1.063       .  S
C1201      C1202   1.472       .  A
C1202      C1203   1.536       .  S
C1203      F1207   1.388       .  S
C1203      F1208   1.382       .  S
C1203      F1209   1.357       .  S
C1206      F1210   1.384       .  S
C1206      F1211   1.384       .  S
C1206      F1212   1.382       .  S
C1213      C1214   1.392       .  A
C1213      C1218   1.413       .  A
C1213      H1220   1.085       .  S
C1214      C1215   1.405       .  A
C1215      C1222   1.515       .  S
C1215      C1216   1.412       .  A
C1216      C1217   1.413       .  A
C1216      H1221   1.056       .  S
C1217      C1218   1.462       .  A
C1218      C1219   1.520       .  S
C1219      F1223   1.383       .  S
C1219      F1224   1.365       .  S
C1219      F1225   1.383       .  S
C1222      F1226   1.381       .  S
C1222      F1227   1.384       .  S
C1222      F1228   1.384       .  S
C1229      C1230   1.390       .  A
C1229      C1234   1.402       .  A
C1229      H1236   1.085       .  S
C1230      C1231   1.406       .  A
C1231      C1238   1.517   1_655  S
C1231      C1232   1.406       .  A
C1232      C1233   1.409       .  A
C1232      H1237   1.046       .  S
C1233      C1234   1.477       .  A
C1234      C1235   1.553       .  S
C1235      F1239   1.384       .  S
C1235      F1240   1.368       .  S
C1235      F1241   1.383       .  S
C1238      F1242   1.383   1_455  S
C1238      F1243   1.382       .  S
C1238      F1244   1.381       .  S
C1245      C1246   1.413       .  A
C1245      H1252   1.042       .  S
C1246      C1247   1.472       .  A
C1247      C1254   1.545       .  S
C1247      C1248   1.401       .  A
C1248      H1253   1.086       .  S
C1249      C1250   1.395       .  A
C1250      C1251   1.525   1_545  S
C1251      F1255   1.385       .  S
C1251      F1256   1.384       .  S
C1251      F1257   1.383       .  S
C1254      F1258   1.377       .  S
C1254      F1259   1.367       .  S
C1254      F1260   1.389       .  S
C1261      C1262   1.409       .  A
C1261      C1266   1.416       .  A
C1261      H1268   1.055       .  S
C1262      C1263   1.470       .  A
C1263      C1270   1.531       .  S
C1263      C1264   1.407       .  A
C1264      C1265   1.384       .  A
C1264      H1269   1.086       .  S
C1265      C1266   1.416       .  A
C1266      C1267   1.523       .  S
C1267      F1271   1.385       .  S
C1267      F1272   1.384       .  S
C1267      F1273   1.383       .  S
C1270      F1274   1.388       .  S
C1270      F1275   1.359       .  S
C1270      F1276   1.380       .  S
C1277      C1278   1.436       .  A
C1277      C1282   1.416       .  A
C1277      H1284   1.069       .  S
C1278      C1279   1.481       .  A
C1279      C1286   1.539       .  S
C1280      C1281   1.385       .  A
C1280      H1285   1.087       .  S
C1282      C1283   1.518       .  S
C1283      F1287   1.384       .  S
C1283      F1288   1.382       .  S
C1283      F1289   1.384       .  S
C1286      F1290   1.353       .  S
C1286      F1291   1.383   1_565  S
C1293      C1294   1.389       .  A
C1293      C1298   1.419       .  A
C1293      H1300   1.086       .  S
C1294      C1295   1.398       .  A
C1295      C1302   1.528       .  S
C1295      C1296   1.404       .  A
C1296      C1297   1.447       .  A
C1296      H1301   1.065       .  S
C1297      C1298   1.483       .  A
C1298      C1299   1.551       .  S
C1299      F1303   1.387       .  S
C1299      F1304   1.384       .  S
C1299      F1305   1.357       .  S
C1302      F1306   1.383       .  S
C1302      F1307   1.383       .  S
C1302      F1308   1.385       .  S
C1309      C1310   1.384       .  A
C1309      C1314   1.415       .  A
C1309      H1316   1.082       .  S
C1310      C1476   1.479       .  S
C1310      C1311   1.395       .  A
C1311      C1318   1.519       .  S
C1311      C1312   1.408       .  A
C1312      C1313   1.440       .  A
C1312      H1317   1.075       .  S
C1313      C1314   1.482       .  A
C1314      C1315   1.548       .  S
C1315      F1319   1.387       .  S
C1315      F1320   1.371       .  S
C1315      F1321   1.371       .  S
C1318      F1806   1.383       .  S
C1318      F1807   1.383       .  S
C1318      F1324   1.385       .  S
F1322      C1802   1.383       .  S
F1323      C1802   1.383       .  S
C1325      C1326   1.382       .  A
C1325      H1332   1.087       .  S
C1327      C1334   1.516       .  S
C1327      C1328   1.416       .  A
C1328      C1329   1.423       .  A
C1328      H1333   1.067       .  S
C1329      C1330   1.481       .  A
C1330      C1331   1.550       .  S
C1331      F1336   1.368       .  S
C1331      F1337   1.382       .  S
C1334      F1338   1.383       .  S
C1334      F1339   1.381       .  S
C1334      F1340   1.385       .  S
C1341      C1342   1.412       .  A
C1341      C1346   1.395       .  A
C1341      H1348   1.083       .  S
C1342      C1343   1.423       .  A
C1343      C1350   1.521       .  S
C1343      C1344   1.421       .  A
C1344      C1345   1.438       .  A
C1344      H1349   1.064       .  S
C1345      C1346   1.431       .  A
C1346      C1347   1.545       .  S
C1347      F1351   1.386       .  S
C1347      F1352   1.382       .  S
C1347      F1353   1.370       .  S
C1350      F1354   1.383       .  S
C1350      F1355   1.384       .  S
C1350      F1356   1.385       .  S
C1357      C1358   1.385       .  A
C1357      C1362   1.404       .  A
C1358      C1359   1.397       .  A
C1359      C1366   1.520       .  S
C1359      C1360   1.411       .  A
C1360      C1361   1.429       .  A
C1360      H1365   1.064       .  S
C1361      C1362   1.473       .  A
C1362      C1363   1.545       .  S
C1363      F1368   1.370       .  S
C1363      F1369   1.375       .  S
C1366      F1370   1.383       .  S
C1366      F1371   1.384       .  S
C1366      F1372   1.384       .  S
C1373      C1374   1.432       .  A
C1373      C1378   1.408       .  A
C1373      H1380   1.061       .  S
C1374      C1375   1.476       .  A
C1375      C1382   1.543       .  S
C1375      C1376   1.414       .  A
C1376      C1377   1.386       .  A
C1376      H1381   1.087       .  S
C1377      C1378   1.400       .  A
C1378      C1379   1.521       .  S
C1379      F1383   1.383       .  S
C1379      F1384   1.383       .  S
C1379      F1385   1.382       .  S
C1382      F1386   1.382       .  S
C1382      F1387   1.364       .  S
C1382      F1388   1.389       .  S
C1389      C1390   1.386       .  A
C1389      C1394   1.416       .  A
C1389      H1396   1.083       .  S
C1390      C1391   1.400       .  A
C1391      C1398   1.520       .  S
C1391      C1392   1.412       .  A
C1392      C1393   1.420       .  A
C1392      H1397   1.047       .  S
C1393      C1394   1.475       .  A
C1394      C1395   1.542       .  S
C1395      F1399   1.386       .  S
C1395      F1400   1.371       .  S
C1395      F1401   1.370       .  S
C1398      F1402   1.383       .  S
C1398      F1403   1.382       .  S
C1398      F1404   1.383       .  S
C1405      C1406   1.431       .  A
C1405      C1410   1.408   1_655  A
C1405      H1412   1.063       .  S
C1406      C1407   1.463   1_655  A
C1407      C1414   1.539       .  S
C1407      C1408   1.409       .  A
C1408      C1409   1.396       .  A
C1408      H1413   1.085       .  S
C1409      C1410   1.406       .  A
C1410      C1411   1.518   1_455  S
C1411      F1415   1.380       .  S
C1411      F1416   1.383   1_655  S
C1411      F1417   1.381       .  S
C1414      F1418   1.385       .  S
C1414      F1419   1.366       .  S
C1414      F1420   1.382       .  S
C1421      C1422   1.422       .  A
C1421      H1428   1.054       .  S
C1422      C1423   1.486   1_655  A
C1423      C1430   1.550       .  S
C1423      C1424   1.413       .  A
C1424      H1429   1.088       .  S
C1425      C1426   1.391       .  A
C1426      C1427   1.523   1_455  S
C1427      F1431   1.384       .  S
C1427      F1432   1.384   1_655  S
C1427      F1433   1.381       .  S
C1430      F1434   1.385       .  S
C1430      F1435   1.353       .  S
C1430      F1436   1.385       .  S
C1437      C1438   1.421       .  A
C1437      C1926   1.416       .  A
C1437      H1444   1.053       .  S
C1438      C1439   1.439       .  A
C1439      C1446   1.534       .  S
C1439      C1924   1.412       .  A
C1440      C1923   1.408       .  A
C1440      C1441   1.406       .  A
C1440      H1445   1.085       .  S
C1441      C1442   1.416       .  A
C1442      C1443   1.520       .  S
C1442      C1921   1.421       .  A
C1443      F1931   1.383       .  S
C1443      F1448   1.382       .  S
C1443      F1449   1.384       .  S
C1446      F1450   1.389   1_554  S
C1446      F1451   1.377   1_565  S
C1446      F1936   1.380       .  S
F1447      C1927   1.384   1_554  S
F1452      C1930   1.377       .  S
C1453      C1502   1.746       .  S
C1453      C1890   1.600       .  S
C1453      C1906   1.618       .  S
C1453      C1922   1.660       .  S
C1454      C1478   1.778       .  S
C1454      C1845   1.636       .  S
C1454      C1858   1.622       .  S
C1454      C1877   1.627       .  S
O1455      C1471   1.271       .  A
O1455     Zn1461   1.993       .  S
C1456      O1472   1.270       .  A
C1456      O1469   1.277       .  A
C1456      C1826   1.495       .  S
O1457      C1470   1.281       .  A
O1457     Cd1464   2.113       .  S
O1458      C1476   1.276       .  A
O1458     Cd1467   2.060       .  S
O1459      C1473   1.273       .  A
O1459     Cd1463   2.076       .  S
O1460      C1471   1.276       .  A
O1460     Cd1463   2.088       .  S
Zn1461     O1472   1.979       .  S
Zn1461     O1474   2.012       .  S
Zn1461     O1466   1.944       .  S
O1462      C1473   1.279       .  A
O1462     Cd1467   2.118       .  S
Cd1463     O1465   2.047       .  S
Cd1463     O1466   2.003       .  S
Cd1464     O1468   2.105       .  S
Cd1464     O1477   2.098       .  S
Cd1464     O1466   2.019       .  S
O1465      C1475   1.273       .  A
O1466     Cd1467   2.001       .  S
Cd1467     O1469   2.090       .  S
O1468      C1475   1.280       .  A
C1470      O1474   1.270       .  A
C1470      C1778   1.489       .  S
C1471      C1874   1.481       .  S
C1473      C1810   1.489       .  S
C1475      C1765   1.479       .  S
C1476      O1477   1.277       .  A
C1478      C1730   1.620       .  S
C1478      C1746   1.622       .  S
C1478      C1797   1.654       .  S
O1479      C1495   1.284       .  A
O1479     Zn1485   2.092       .  S
C1480      O1496   1.280       .  A
C1480      O1493   1.267       .  A
C1480      C1749   1.497       .  S
O1481      C1494   1.275       .  A
O1481     Cd1488   2.064       .  S
O1482      C1500   1.273       .  A
O1482     Cd1491   2.040       .  S
O1483      C1497   1.274       .  A
O1483     Cd1487   2.054       .  S
O1484      C1495   1.270       .  A
O1484     Cd1487   2.032       .  S
Zn1485     O1496   2.064       .  S
Zn1485     O1498   2.064   1_655  S
Zn1485     O1490   1.959       .  S
O1486      C1497   1.268       .  A
O1486     Cd1491   2.052       .  S
Cd1487     O1489   2.054   1_655  S
Cd1487     O1490   1.974       .  S
Cd1488     O1492   2.112       .  S
Cd1488     O1501   2.092   1_455  S
Cd1488     O1490   2.018   1_455  S
O1489      C1499   1.272       .  A
O1490     Cd1491   1.987       .  S
Cd1491     O1493   2.037       .  S
O1492      C1499   1.279       .  A
C1494      O1498   1.283       .  A
C1494      C1698   1.477       .  S
C1495      C1925   1.487       .  S
C1497      C1733   1.475   1_565  S
C1499      C1682   1.483   1_565  S
C1500      O1501   1.277       .  A
C1500      C1714   1.487       .  S
C1502      C1717   1.598       .  S
C1502      C1813   1.599       .  S
C1502      C1829   1.650       .  S
C1503      C1552   1.730       .  S
C1503      C1666   1.665       .  S
C1503      C1762   1.651       .  S
C1503      C1781   1.684       .  S
C1504      C1528   1.771       .  S
C1504      C1650   1.636       .  S
C1504      C1685   1.614       .  S
C1504      C1701   1.631       .  S
O1505      C1521   1.272       .  A
O1505     Zn1511   2.038       .  S
C1506      O1522   1.274       .  A
C1506      O1519   1.273       .  A
C1506      C1634   1.463       .  S
O1507      C1520   1.274       .  A
O1507     Cd1514   2.071       .  S
O1508      C1526   1.271       .  A
O1508     Cd1517   2.062       .  S
O1509      C1523   1.272       .  A
O1509     Cd1513   2.077       .  S
O1510      C1521   1.273       .  A
O1510     Cd1513   2.028       .  S
Zn1511     O1522   2.014       .  S
Zn1511     O1524   1.994       .  S
Zn1511     O1516   1.948       .  S
O1512      C1523   1.274       .  A
O1512     Cd1517   2.053       .  S
Cd1513     O1515   2.044       .  S
Cd1513     O1516   1.975       .  S
Cd1514     O1518   2.065       .  S
Cd1514     O1527   2.080       .  S
Cd1514     O1516   1.994       .  S
O1515      C1525   1.272       .  A
O1516     Cd1517   1.975       .  S
Cd1517     O1519   2.059       .  S
O1518      C1525   1.272       .  A
C1520      O1524   1.273       .  A
C1520      C1909   1.468       .  S
C1523      C1618   1.477       .  S
C1525      C1893   1.491       .  S
C1526      O1527   1.277       .  A
C1526      C1602   1.500       .  S
C1528      C1570   1.641       .  S
C1528      C1589   1.654       .  S
C1528      C1605   1.645       .  S
O1529      C1545   1.270       .  A
O1529     Zn1535   1.991       .  S
C1530      O1546   1.274       .  A
C1530      O1543   1.273       .  A
C1530      C1669   1.472       .  S
O1531      C1544   1.274       .  A
O1531     Cd1538   2.095       .  S
O1532      C1550   1.274       .  A
O1532     Cd1541   2.052       .  S
O1533      C1547   1.276       .  A
O1533     Cd1537   2.100       .  S
O1534      C1545   1.276       .  A
O1534     Cd1537   2.076       .  S
Zn1535     O1546   2.018       .  S
Zn1535     O1548   2.014       .  S
Zn1535     O1540   1.925       .  S
O1536      C1547   1.274       .  A
O1536     Cd1541   2.072       .  S
Cd1537     O1539   2.069       .  S
Cd1537     O1540   2.002       .  S
Cd1538     O1542   2.056       .  S
Cd1538     O1551   2.057       .  S
Cd1538     O1540   2.006       .  S
O1539      C1549   1.278       .  A
O1540     Cd1541   1.994       .  S
Cd1541     O1543   2.068       .  S
O1542      C1549   1.271       .  A
C1544      O1548   1.275       .  A
C1544      C1861   1.492       .  S
C1545      C1573   1.472       .  S
C1549      C1554   1.497       .  S
C1550      O1551   1.273       .  A
C1552      C1557   1.611       .  S
C1552      C1621   1.622       .  S
C1552      C1637   1.605       .  S
C1553      C1554   1.394       .  A
C1553      C1558   1.406   1_556  A
C1553      H1560   1.085       .  S
C1554      C1555   1.414   1_556  A
C1555      C1562   1.524   1_554  S
C1555      C1556   1.408       .  A
C1559      F1564   1.364       .  S
C1559      F1565   1.381       .  S
C1562      F1566   1.381       .  S
C1562      F1567   1.383       .  S
C1562      F1568   1.383   1_556  S
C1569      C1570   1.441       .  A
C1569      C1574   1.406       .  A
C1569      H1576   1.070       .  S
C1570      C1571   1.466       .  A
C1571      C1578   1.528       .  S
C1571      C1572   1.414       .  A
C1572      C1573   1.382       .  A
C1572      H1577   1.086       .  S
C1573      C1574   1.398       .  A
C1574      C1575   1.525       .  S
C1575      F1579   1.384       .  S
C1575      F1580   1.383       .  S
C1575      F1581   1.382       .  S
C1578      F1582   1.386       .  S
C1578      F1583   1.347       .  S
C1578      F1584   1.384       .  S
C1585      C1586   1.388       .  A
C1585      C1590   1.419       .  A
C1585      H1592   1.086       .  S
C1587      C1594   1.520       .  S
C1588      C1589   1.444       .  A
C1588      H1593   1.062       .  S
C1589      C1590   1.476       .  A
C1590      C1591   1.522       .  S
C1591      F1595   1.382       .  S
C1591      F1596   1.354       .  S
C1591      F1597   1.382       .  S
C1594      F1598   1.383       .  S
C1594      F1599   1.383       .  S
C1594      F1600   1.385       .  S
C1601      C1602   1.403       .  A
C1601      C1606   1.411       .  A
C1601      H1608   1.085       .  S
C1602      C1603   1.419       .  A
C1603      C1610   1.525       .  S
C1603      C1604   1.407       .  A
C1604      C1605   1.432       .  A
C1604      H1609   1.074       .  S
C1605      C1606   1.458       .  A
C1606      C1607   1.547       .  S
C1607      F1611   1.392       .  S
C1607      F1612   1.378       .  S
C1607      F1613   1.373       .  S
C1610      F1614   1.384       .  S
C1610      F1615   1.383       .  S
C1610      F1616   1.385       .  S
C1617      C1618   1.393       .  A
C1617      C1622   1.402       .  A
C1617      H1624   1.087       .  S
C1618      C1619   1.409       .  A
C1619      C1626   1.521       .  S
C1619      C1620   1.414       .  A
C1620      C1621   1.437       .  A
C1620      H1625   1.061       .  S
C1621      C1622   1.448       .  A
C1622      C1623   1.533       .  S
C1623      F1627   1.376       .  S
C1623      F1628   1.388       .  S
C1623      F1629   1.352       .  S
C1626      F1630   1.383       .  S
C1626      F1631   1.383       .  S
C1626      F1632   1.384       .  S
C1633      C1638   1.413   1_545  A
C1633      H1640   1.085       .  S
C1635      C1636   1.404       .  A
C1636      C1637   1.411       .  A
C1636      H1641   1.056       .  S
C1637      C1638   1.471       .  A
C1638      C1639   1.536       .  S
C1639      F1643   1.387   1_565  S
C1639      F1644   1.380       .  S
C1639      F1645   1.365       .  S
C1642      F1646   1.382       .  S
C1642      F1647   1.382       .  S
C1642      F1648   1.382       .  S
C1649      C1650   1.420       .  A
C1649      C1654   1.395       .  A
C1649      H1656   1.040       .  S
C1650      C1651   1.474       .  A
C1651      C1658   1.539       .  S
C1651      C1652   1.427       .  A
C1652      C1653   1.392       .  A
C1652      H1657   1.082       .  S
C1653      C1654   1.402       .  A
C1654      C1655   1.537       .  S
C1655      F1659   1.386       .  S
C1658      F1662   1.386       .  S
C1658      F1663   1.363       .  S
C1658      F1664   1.379       .  S
C1665      C1666   1.455       .  A
C1665      C1670   1.403       .  A
C1665      H1672   1.075       .  S
C1666      C1667   1.498       .  A
C1667      C1674   1.551       .  S
C1667      C1668   1.420       .  A
C1668      C1669   1.376       .  A
C1668      H1673   1.089       .  S
C1669      C1670   1.386       .  A
C1670      C1671   1.520       .  S
C1671      F1675   1.384       .  S
C1671      F1676   1.383       .  S
C1671      F1677   1.384       .  S
C1674      F1678   1.388       .  S
C1674      F1679   1.340       .  S
C1674      F1680   1.386       .  S
C1681      C1686   1.413       .  A
C1681      H1688   1.081       .  S
C1682      C1683   1.406       .  A
C1683      C1690   1.514   1_545  S
C1684      C1685   1.404       .  A
C1684      H1689   1.032       .  S
C1685      C1686   1.475       .  A
C1686      C1687   1.545       .  S
C1687      F1691   1.378       .  S
C1687      F1692   1.387       .  S
C1687      F1693   1.365       .  S
C1690      F1694   1.382       .  S
C1690      F1695   1.383       .  S
C1690      F1696   1.385       .  S
C1697      C1698   1.380       .  A
C1697      C1702   1.408       .  A
C1697      H1704   1.087       .  S
C1698      C1699   1.403       .  A
C1699      C1706   1.516       .  S
C1699      C1700   1.413       .  A
C1700      C1701   1.434       .  A
C1700      H1705   1.069       .  S
C1701      C1702   1.481       .  A
C1702      C1703   1.535       .  S
C1703      F1707   1.382       .  S
C1703      F1708   1.359       .  S
C1703      F1709   1.383       .  S
C1706      F1710   1.382       .  S
C1706      F1711   1.383   1_455  S
C1706      F1712   1.384       .  S
C1713      C1714   1.389       .  A
C1713      C1718   1.403       .  A
C1713      H1720   1.086       .  S
C1714      C1715   1.406       .  A
C1715      C1722   1.519   1_655  S
C1715      C1716   1.414       .  A
C1716      C1717   1.420       .  A
C1716      H1721   1.053       .  S
C1717      C1718   1.477       .  A
C1718      C1719   1.553       .  S
C1719      F1723   1.384       .  S
C1719      F1724   1.366       .  S
C1719      F1725   1.382       .  S
C1722      F1726   1.382       .  S
C1722      F1727   1.383       .  S
C1722      F1728   1.378       .  S
C1729      C1730   1.415       .  A
C1729      H1736   1.040       .  S
C1730      C1731   1.459       .  A
C1731      C1738   1.539       .  S
C1731      C1732   1.395       .  A
C1732      H1737   1.086       .  S
C1733      C1734   1.409   1_545  A
C1734      C1735   1.522       .  S
C1735      F1739   1.385       .  S
C1735      F1740   1.383       .  S
C1735      F1741   1.383       .  S
C1738      F1742   1.379       .  S
C1738      F1743   1.369       .  S
C1738      F1744   1.388       .  S
C1745      C1746   1.414       .  A
C1745      C1750   1.408       .  A
C1745      H1752   1.045       .  S
C1746      C1747   1.464       .  A
C1747      C1754   1.529       .  S
C1747      C1748   1.413       .  A
C1748      C1749   1.394       .  A
C1748      H1753   1.085       .  S
C1749      C1750   1.415       .  A
C1750      C1751   1.527       .  S
C1751      F1755   1.385       .  S
C1751      F1756   1.384       .  S
C1751      F1757   1.383       .  S
C1754      F1758   1.386       .  S
C1754      F1759   1.361       .  S
C1754      F1760   1.383       .  S
C1761      C1762   1.434       .  A
C1761      C1766   1.414       .  A
C1761      H1768   1.064       .  S
C1762      C1763   1.478       .  A
C1763      C1770   1.537       .  S
C1764      C1765   1.381       .  A
C1764      H1769   1.087       .  S
C1766      C1767   1.518       .  S
C1767      F1771   1.385       .  S
C1767      F1772   1.382       .  S
C1767      F1773   1.384       .  S
C1770      F1774   1.356       .  S
C1770      F1775   1.383   1_565  S
C1777      C1778   1.391       .  A
C1777      C1782   1.416       .  A
C1777      H1784   1.085       .  S
C1778      C1779   1.405       .  A
C1779      C1786   1.523       .  S
C1779      C1780   1.411       .  A
C1780      C1781   1.444       .  A
C1780      H1785   1.070       .  S
C1781      C1782   1.472       .  A
C1782      C1783   1.547       .  S
C1783      F1787   1.384       .  S
C1783      F1788   1.384       .  S
C1783      F1789   1.359       .  S
C1786      F1790   1.383       .  S
C1786      F1791   1.383       .  S
C1786      F1792   1.385       .  S
C1793      C1794   1.382       .  A
C1793      C1798   1.425       .  A
C1793      H1800   1.082       .  S
C1794      C1795   1.391       .  A
C1795      C1802   1.523       .  S
C1795      C1796   1.408       .  A
C1796      C1797   1.440       .  A
C1796      H1801   1.061       .  S
C1797      C1798   1.487       .  A
C1798      C1799   1.541       .  S
C1799      F1803   1.387       .  S
C1799      F1804   1.372       .  S
C1799      F1805   1.370       .  S
C1802      F1808   1.382       .  S
C1809      C1810   1.384       .  A
C1809      H1816   1.087       .  S
C1811      C1818   1.514       .  S
C1811      C1812   1.417       .  A
C1812      C1813   1.425       .  A
C1812      H1817   1.071       .  S
C1813      C1814   1.479       .  A
C1814      C1815   1.549       .  S
C1815      F1820   1.368       .  S
C1815      F1821   1.382       .  S
C1818      F1822   1.383       .  S
C1818      F1823   1.380       .  S
C1818      F1824   1.384       .  S
C1825      C1826   1.413       .  A
C1825      C1830   1.402       .  A
C1825      H1832   1.083       .  S
C1826      C1827   1.420       .  A
C1827      C1834   1.524       .  S
C1827      C1828   1.414       .  A
C1828      C1829   1.434       .  A
C1828      H1833   1.060       .  S
C1829      C1830   1.430       .  A
C1830      C1831   1.539       .  S
C1831      F1835   1.386       .  S
C1831      F1836   1.382       .  S
C1831      F1837   1.373       .  S
C1834      F1838   1.382       .  S
C1834      F1839   1.384       .  S
C1834      F1840   1.385       .  S
C1841      C1842   1.382       .  A
C1841      C1846   1.413       .  A
C1842      C1843   1.399       .  A
C1843      C1850   1.516       .  S
C1843      C1844   1.416       .  A
C1844      C1845   1.437       .  A
C1844      H1849   1.075       .  S
C1845      C1846   1.486       .  A
C1846      C1847   1.542       .  S
C1847      F1852   1.376       .  S
C1847      F1853   1.368       .  S
C1850      F1854   1.383       .  S
C1850      F1855   1.383       .  S
C1850      F1856   1.384       .  S
C1857      C1858   1.418       .  A
C1857      C1862   1.415       .  A
C1857      H1864   1.049       .  S
C1858      C1859   1.462       .  A
C1859      C1866   1.530       .  S
C1859      C1860   1.408       .  A
C1860      C1861   1.392       .  A
C1860      H1865   1.086       .  S
C1861      C1862   1.406       .  A
C1862      C1863   1.522       .  S
C1863      F1867   1.386       .  S
C1863      F1868   1.383       .  S
C1863      F1869   1.383       .  S
C1866      F1870   1.380       .  S
C1866      F1871   1.364       .  S
C1866      F1872   1.387       .  S
C1873      C1874   1.388       .  A
C1873      C1878   1.410       .  A
C1873      H1880   1.084       .  S
C1874      C1875   1.402       .  A
C1875      C1882   1.521       .  S
C1875      C1876   1.415       .  A
C1876      C1877   1.422       .  A
C1876      H1881   1.050       .  S
C1877      C1878   1.474       .  A
C1878      C1879   1.544       .  S
C1879      F1883   1.388       .  S
C1879      F1884   1.373       .  S
C1879      F1885   1.372       .  S
C1882      F1886   1.384       .  S
C1882      F1887   1.382       .  S
C1882      F1888   1.383       .  S
C1889      C1890   1.436       .  A
C1889      C1894   1.408   1_655  A
C1889      H1896   1.062       .  S
C1890      C1891   1.457   1_655  A
C1891      C1898   1.532       .  S
C1891      C1892   1.407       .  A
C1892      C1893   1.396       .  A
C1892      H1897   1.085       .  S
C1893      C1894   1.407       .  A
C1894      C1895   1.523   1_455  S
C1895      F1899   1.378       .  S
C1895      F1900   1.383   1_655  S
C1895      F1901   1.383       .  S
C1898      F1902   1.385       .  S
C1898      F1903   1.367       .  S
C1898      F1904   1.382       .  S
C1905      C1906   1.422       .  A
C1905      H1912   1.052       .  S
C1906      C1907   1.483   1_655  A
C1907      C1914   1.546       .  S
C1907      C1908   1.413       .  A
C1908      H1913   1.089       .  S
C1909      C1910   1.391   1_455  A
C1910      C1911   1.522       .  S
C1911      F1915   1.383       .  S
C1911      F1916   1.383   1_655  S
C1911      F1917   1.382       .  S
C1914      F1918   1.382       .  S
C1914      F1919   1.355       .  S
C1914      F1920   1.386       .  S
C1921      C1922   1.423       .  A
C1921      H1928   1.057       .  S
C1922      C1923   1.438       .  A
C1923      C1930   1.534       .  S
C1924      C1925   1.403   1_554  A
C1924      H1929   1.086   1_554  S
C1925      C1926   1.410   1_556  A
C1926      C1927   1.520   1_554  S
C1927      F1932   1.382       .  S
C1927      F1933   1.384       .  S
C1930      F1934   1.390       .  S
C1930      F1935   1.379   1_565  S
