geometry optimzed in LAMMPS
_audit_creation_date              2020-11-30 
_audit_creation_method            'lammps2cif' 
_symmetry_space_group_name_H-M    'P1' 
_symmetry_Int_Tables_number       1 
_symmetry_cell_setting            triclinic 
loop_ 
_symmetry_equiv_pos_as_xyz 
  x,y,z 
_cell_length_a                    26.54758942 
_cell_length_b                    41.304549329880516 
_cell_length_c                    43.65987167805041 
_cell_angle_alpha                 93.08895646053767 
_cell_angle_beta                  95.59876081821321 
_cell_angle_gamma                 73.36370630498527 
loop_ 
_atom_site_label 
_atom_site_type_symbol 
_atom_site_fract_x 
_atom_site_fract_y 
_atom_site_fract_z 
_atom_site_charge 
O1          O  0.14338584  0.21555710  0.01686136    -0.81200
O2          O  0.89480511  0.23518203  0.00620456    -0.65900
O3          O  0.03874366  0.22396855  0.49317749    -1.12500
C4          C  0.99447904  0.34129919  0.49394400     1.05600
O5          O  0.85775005  0.28449969  0.48365398    -0.79100
O6          O  0.93476899  0.28159082  0.44584243    -0.66700
Ni7        Ni  0.09039328  0.19250292  0.01912490     1.34900
C8          C  0.98153308  0.27424100  0.43781064     0.84400
O9          O  0.97362748  0.18243880  0.99212913    -0.79700
O10         O  0.04646179  0.16313452  0.02325853    -0.90000
C11         C  0.85451654  0.25798863  0.49587432     0.84000
O12         O  0.06636449  0.21858320  0.05475769    -0.68200
O13         O  0.95465449  0.33700601  0.47745717    -0.87400
C14         C  0.01960276  0.22591132  0.06280118     0.84800
C15         C  0.00670867  0.15877491  0.00675003     1.06400
H16         H  0.95677998  0.28284193  0.02865695     0.38200
O17         O  0.96234771  0.27610824  0.00742572    -1.10100
O18         O  0.02046907  0.27684564  0.45644886    -0.66800
Ni19       Ni  0.03414894  0.27086997  0.50058350     1.26300
O20         O  0.98066852  0.22326581  0.04417733    -0.67000
O21         O  0.02751867  0.31760525  0.50853960    -0.79300
C22         C  0.14656566  0.24208411  0.00464991     0.84200
O23         O  0.10625111  0.26491514  0.49440927    -0.66500
Ni24       Ni  0.91071963  0.30760160  0.48149663     1.27400
Ni25       Ni  0.96694481  0.22920421  0.00004123     1.26100
H26         H  0.04430426  0.21724400  0.47195749     0.38700
O27         O  0.14335589  0.21561908  0.26717778    -0.81200
O28         O  0.89478942  0.23510609  0.25634683    -0.65900
O29         O  0.03880597  0.22377937  0.24342859    -1.12500
C30         C  0.99435807  0.34112754  0.24325427     1.05600
O31         O  0.85779376  0.28423896  0.23346585    -0.79100
O32         O  0.93492028  0.28096426  0.19560627    -0.66700
Ni33       Ni  0.09039391  0.19257366  0.26962462     1.34900
C34         C  0.98171338  0.27356589  0.18760978     0.84400
O35         O  0.97376136  0.18223434  0.24272053    -0.79700
O36         O  0.04649722  0.16322971  0.27399859    -0.90000
C37         C  0.85452488  0.25784233  0.24587374     0.84000
O38         O  0.06617790  0.21898594  0.30504955    -0.68200
O39         O  0.95464689  0.33666116  0.22677083    -0.87400
C40         C  0.01939012  0.22636890  0.31305557     0.84800
C41         C  0.00684195  0.15870256  0.25750150     1.06400
H42         H  0.95664682  0.28297714  0.27842816     0.38200
O43         O  0.96229474  0.27604362  0.25724946    -1.10100
O44         O  0.02060451  0.27627112  0.20623999    -0.66800
Ni45       Ni  0.03411721  0.27074608  0.25043611     1.26300
O46         O  0.98050990  0.22358064  0.29445183    -0.67000
O47         O  0.02738893  0.31756195  0.25801229    -0.79300
C48         C  0.14654536  0.24202125  0.25474349     0.84200
O49         O  0.10624354  0.26473539  0.24430636    -0.66500
Ni50       Ni  0.91074141  0.30729742  0.23107927     1.27400
Ni51       Ni  0.96697546  0.22907253  0.25024921     1.26100
H52         H  0.04446452  0.21684311  0.22224570     0.38700
O53         O  0.64323753  0.21572165  0.01674985    -0.81200
O54         O  0.39478926  0.23509866  0.00592233    -0.65900
O55         O  0.53868599  0.22400469  0.49295050    -1.12500
C56         C  0.49411664  0.34135069  0.49355114     1.05600
O57         O  0.35760525  0.28443100  0.48343556    -0.79100
O58         O  0.43459324  0.28148441  0.44555944    -0.66700
Ni59       Ni  0.59033933  0.19256552  0.01891026     1.34900
C60         C  0.48136182  0.27414689  0.43752806     0.84400
O61         O  0.47362026  0.18244381  0.99185582    -0.79700
O62         O  0.54648253  0.16311437  0.02295850    -0.90000
C63         C  0.35445831  0.25789610  0.49564682     0.84000
O64         O  0.56621522  0.21858609  0.05454516    -0.68200
O65         O  0.45436927  0.33696535  0.47705577    -0.87400
C66         C  0.51944767  0.22589990  0.06256560     0.84800
C67         C  0.50668471  0.15877896  0.00647321     1.06400
H68         H  0.45663464  0.28285076  0.02836515     0.38200
O69         O  0.46220914  0.27611567  0.00714907    -1.10100
O70         O  0.52028762  0.27680748  0.45615126    -0.66800
Ni71       Ni  0.53400126  0.27092456  0.50029214     1.26300
O72         O  0.48053822  0.22326641  0.04391805    -0.67000
O73         O  0.52723931  0.31770312  0.50816765    -0.79300
C74         C  0.64643996  0.24222149  0.00449513     0.84200
O75         O  0.60613341  0.26499224  0.49413026    -0.66500
Ni76       Ni  0.41052057  0.30754624  0.48118788     1.27400
Ni77       Ni  0.46689242  0.22919574  0.99977543     1.26100
H78         H  0.54428136  0.21725178  0.47172437     0.38700
O79         O  0.64311590  0.21583597  0.26691939    -0.81200
O80         O  0.39471209  0.23516777  0.25606510    -0.65900
O81         O  0.53863755  0.22397421  0.24311913    -1.12500
C82         C  0.49388100  0.34132610  0.24293611     1.05600
O83         O  0.35754346  0.28426727  0.23317969    -0.79100
O84         O  0.43470215  0.28101054  0.19533443    -0.66700
Ni85       Ni  0.59024103  0.19271551  0.26926566     1.34900
C86         C  0.48148961  0.27367043  0.18733515     0.84400
O87         O  0.47362162  0.18239750  0.24233909    -0.79700
O88         O  0.54641382  0.16329959  0.27354200    -0.88000
C89         C  0.35438986  0.25785519  0.24561142     0.84000
O90         O  0.56604743  0.21897838  0.30476522    -0.68200
O91         O  0.45424380  0.33678043  0.22643394    -0.87400
C92         C  0.51925249  0.22637622  0.31275682     0.84800
C93         C  0.50668487  0.15883357  0.25707941     1.06400
H94         H  0.45638207  0.28311349  0.27814794     0.38200
O95         O  0.46205809  0.27618787  0.25695448    -1.10100
O96         O  0.52034969  0.27647126  0.20595010    -0.66800
Ni97       Ni  0.53387653  0.27095623  0.25015171     1.26300
O98         O  0.48035748  0.22368116  0.29412475    -0.67000
O99         O  0.52700079  0.31780035  0.25770356    -0.79300
C100        C  0.64634743  0.24226316  0.25455042     0.84200
O101        O  0.60606251  0.26498541  0.24407679    -0.66500
Ni102      Ni  0.41042967  0.30737795  0.23077060     1.27400
Ni103      Ni  0.46682584  0.22921610  0.24993363     1.26100
H104        H  0.54428365  0.21706573  0.22194527     0.38700
O105        O  0.04694089  0.44587288  0.50084404    -0.74800
O106        O  0.04281536  0.03943334  0.50455025    -0.74800
O107        O  0.04475057  0.49311519  0.04667813    -0.74900
O108        O  0.04485060  0.49226940  0.45872546    -0.74900
O109        O  0.95694961  0.00682958  0.45423503    -0.74800
O110        O  0.95685011  0.00768217  0.04218653    -0.74800
O111        O  0.95472559  0.05407678  0.00005006    -0.74800
O112        O  0.95884924  0.46054172  0.99635098    -0.74900
Ni113      Ni  0.04797925  0.49215797  0.50286271     1.25400
Ni114      Ni  0.95371012  0.00779867  0.99804667     1.25400
C115        C  0.00348937  0.43797214  0.49800140     0.87400
C116        C  0.99815745  0.06199448  0.00287106     0.87300
C117        C  0.00078958  0.00048329  0.05898928     0.87400
C118        C  0.00091112  0.49944863  0.44192404     0.87500
O119        O  0.95688500  0.00716500  0.29218546    -0.74800
O120        O  0.95684937  0.50724928  0.20426710    -0.74800
O121        O  0.95866623  0.46049841  0.24592965    -0.74900
O122        O  0.95485808  0.05400847  0.25050976    -0.74900
O123        O  0.04294940  0.03925671  0.25497232    -0.74800
O124        O  0.04675791  0.44572637  0.25039021    -0.74800
O125        O  0.04475618  0.49257982  0.20872583    -0.74800
O126        O  0.04478914  0.49249529  0.29664027    -0.74900
Ni127      Ni  0.95368129  0.00774890  0.24806434     1.25400
Ni128      Ni  0.04795111  0.49199391  0.25284315     1.25400
C129        C  0.00084763  0.99978801  0.30896421     0.87400
C130        C  0.00079777  0.49996340  0.19194468     0.87300
C131        C  0.00326013  0.43787711  0.24743290     0.87400
C132        C  0.99834065  0.06186981  0.25345046     0.87500
O133        O  0.45621587  0.00705956  0.45374973    -0.74800
O134        O  0.45614288  0.00784258  0.04169248    -0.74800
O135        O  0.45416234  0.05425025  0.99961100    -0.74900
O136        O  0.45806375  0.46072615  0.99583383    -0.74900
O137        O  0.54615686  0.44600418  0.50031947    -0.74800
O138        O  0.54225695  0.03950230  0.00409794    -0.74800
O139        O  0.54404973  0.99319412  0.04617976    -0.74800
O140        O  0.54412447  0.49241411  0.45822006    -0.74900
Ni141      Ni  0.45300690  0.00798783  0.99756063     1.25400
Ni142      Ni  0.54728449  0.49225966  0.50236261     1.25400
C143        C  0.50017363  0.49965725  0.44142644     0.87400
C144        C  0.50008111  0.00060614  0.05849272     0.87300
C145        C  0.49765107  0.06210550  0.00245651     0.87400
C146        C  0.50268842  0.43813175  0.49748938     0.87500
O147        O  0.45606362  0.00752331  0.20376304    -0.74800
O148        O  0.45607271  0.00749979  0.29168685    -0.74800
O149        O  0.45417617  0.05429938  0.24999525    -0.74900
O150        O  0.45779008  0.46080422  0.24545575    -0.74900
O151        O  0.54588413  0.44598452  0.24992535    -0.74800
O152        O  0.54227115  0.03945759  0.25445374    -0.74800
O153        O  0.54398464  0.49276211  0.29613826    -0.74800
O154        O  0.54397561  0.49277380  0.20822463    -0.74900
Ni155      Ni  0.45288409  0.00805417  0.24756463     1.25400
Ni156      Ni  0.54716241  0.49222215  0.25234307     1.25400
C157        C  0.50002061  0.50018743  0.19144101     0.87400
C158        C  0.50003502  0.00009907  0.30846569     0.87300
C159        C  0.49770680  0.06210684  0.25294256     0.87400
C160        C  0.50237001  0.43816297  0.24698956     0.87500
C161        C  0.54769976  0.99351315  0.39346537    -0.13700
C162        C  0.50016196  0.49959342  0.40739575     0.08400
C163        C  0.45258015  0.50581258  0.38846721    -0.13700
C164        C  0.45253281  0.50600577  0.35641411    -0.13700
C165        C  0.50006652  0.99996476  0.34248642     0.08400
C166        C  0.54765243  0.99370508  0.36141278    -0.13700
H167        H  0.58505596  0.98869637  0.40733411     0.12400
H168        H  0.41525074  0.51053764  0.39840728     0.12400
H169        H  0.41517430  0.51084429  0.34254543     0.12400
H170        H  0.58497895  0.98900244  0.35147399     0.12400
C171        C  0.45246451  0.00684692  0.10642775    -0.13700
C172        C  0.50004315  0.00069204  0.09251993     0.08400
C173        C  0.54760560  0.49442154  0.11146709    -0.13700
C174        C  0.54759757  0.49423520  0.14351657    -0.13700
C175        C  0.50002663  0.50033523  0.15742249     0.08400
C176        C  0.45245626  0.00666172  0.13847742    -0.13700
H177        H  0.41511968  0.01171511  0.09254233     0.12400
H178        H  0.58496026  0.48964606  0.10154561     0.12400
H179        H  0.58494462  0.48934951  0.15740104     0.12400
H180        H  0.41510380  0.01141873  0.14839757     0.12400
C181        C  0.04846922  0.99331890  0.39397377    -0.13700
C182        C  0.00092628  0.49933202  0.40789488     0.08400
C183        C  0.95336909  0.50543340  0.38895562    -0.13700
C184        C  0.95334048  0.50559737  0.35690317    -0.13700
C185        C  0.00087443  0.99964256  0.34298386     0.08400
C186        C  0.04844070  0.99348133  0.36192071    -0.13700
H187        H  0.08580781  0.98858788  0.40785245     0.12400
H188        H  0.91604354  0.51009467  0.39888709     0.12400
H189        H  0.91599817  0.51035324  0.34302604     0.12400
H190        H  0.08576242  0.98884555  0.35199035     0.12400
C191        C  0.95321891  0.00654831  0.10692893    -0.13700
C192        C  0.00076724  0.00054975  0.09301897     0.08400
C193        C  0.04831658  0.49440122  0.11196907    -0.13700
C194        C  0.04832894  0.49418630  0.14401893    -0.13700
C195        C  0.00078728  0.50013522  0.15792620     0.08400
C196        C  0.95323115  0.00633471  0.13897900    -0.13700
H197        H  0.91588335  0.01131190  0.09304419     0.12400
H198        H  0.08564958  0.48974478  0.10204717     0.12400
H199        H  0.08566744  0.48940139  0.15790289     0.12400
H200        H  0.91590163  0.01096901  0.14890024     0.12400
C201        C  0.49908126  0.12578439  0.25568244    -0.13600
C202        C  0.49679224  0.09702292  0.25448692    -0.15200
C203        C  0.50336255  0.40323318  0.24549359    -0.13600
C204        C  0.50128908  0.37442679  0.24433460    -0.15200
C205        C  0.49665190  0.09702184  0.00379019    -0.13600
C206        C  0.49896764  0.12576972  0.00495060    -0.15200
C207        C  0.50167387  0.37440443  0.49507548    -0.13600
C208        C  0.50377433  0.40319850  0.49619836    -0.15200
C209        C  0.55166737  0.24072756  0.36608274    -0.13700
C210        C  0.50962368  0.23820883  0.34477347     0.08400
C211        C  0.45813441  0.24794516  0.35414032    -0.13700
C212        C  0.44890253  0.25988835  0.38417866    -0.13700
C213        C  0.49095013  0.26239567  0.40548948     0.08400
C214        C  0.54243593  0.25267095  0.39611853    -0.13700
H215        H  0.59179845  0.23351518  0.35957456     0.12400
H216        H  0.42484909  0.24647169  0.33823859     0.12400
H217        H  0.40877536  0.26709281  0.39069267     0.12400
H218        H  0.57572635  0.25413469  0.41202055     0.12400
C219        C  0.54248472  0.25273991  0.14578834    -0.13700
C220        C  0.49113494  0.26179300  0.15532914     0.08400
C221        C  0.44926213  0.25856609  0.13420163    -0.13700
C222        C  0.45851658  0.24662026  0.10416815    -0.13700
C223        C  0.50985754  0.23760136  0.09461714     0.08400
C224        C  0.55174024  0.24079164  0.11575401    -0.13700
H225        H  0.57563942  0.25478485  0.16154138     0.12400
H226        H  0.40924760  0.26521778  0.14085242     0.12400
H227        H  0.42535537  0.24459409  0.08841153     0.12400
H228        H  0.59174912  0.23415794  0.10909605     0.12400
C229        C  0.99728876  0.09681141  0.25496032    -0.13600
C230        C  0.99937414  0.12561627  0.25611909    -0.15200
C231        C  0.00424158  0.40294578  0.24586787    -0.13600
C232        C  0.00197330  0.37417752  0.24465818    -0.15200
C233        C  0.75594252  0.27842310  0.23640813    -0.13700
C234        C  0.80131241  0.25374890  0.24806234     0.08400
C235        C  0.79517920  0.22536016  0.26192402    -0.13700
C236        C  0.74491795  0.22173121  0.26407172    -0.13700
C237        C  0.69954794  0.24639608  0.25240405     0.08400
C238        C  0.70567818  0.27479411  0.23855620    -0.13700
H239        H  0.75917093  0.30064043  0.22558273     0.12400
H240        H  0.82921525  0.20590619  0.27116307     0.12400
H241        H  0.74169470  0.19951109  0.27489466     0.12400
H242        H  0.67164020  0.29424464  0.22931432     0.12400
C243        C  0.24514984  0.22151998  0.26400343    -0.13700
C244        C  0.19968027  0.24617477  0.25245666     0.08400
C245        C  0.20562071  0.27461609  0.23858436    -0.13700
C246        C  0.25579927  0.27831639  0.23631999    -0.13700
C247        C  0.30126889  0.25366899  0.24787530     0.08400
C248        C  0.29533257  0.22522070  0.26173926    -0.13700
H249        H  0.24206139  0.19926492  0.27482705     0.12400
H250        H  0.17149472  0.29405721  0.22942353     0.12400
H251        H  0.25888215  0.30057274  0.22549617     0.12400
H252        H  0.32946178  0.20578147  0.27089953     0.12400
C253        C  0.99699849  0.09694045  0.00412393    -0.13600
C254        C  0.99909474  0.12573547  0.00522494    -0.15200
C255        C  0.00224995  0.37429456  0.49549514    -0.13600
C256        C  0.00456268  0.40304328  0.49667095    -0.15200
C257        C  0.79519492  0.22575550  0.01240722    -0.13700
C258        C  0.80132962  0.25383514  0.49801960     0.08400
C259        C  0.75598779  0.27815073  0.48582290    -0.13700
C260        C  0.70574678  0.27447808  0.48796552    -0.13700
C261        C  0.69961525  0.24639605  0.00235279     0.08400
C262        C  0.74495798  0.22208372  0.01455052    -0.13700
H263        H  0.82921004  0.20659560  0.02209231     0.12400
H264        H  0.75922437  0.30010743  0.47456092     0.12400
H265        H  0.67172885  0.29363538  0.47827965     0.12400
H266        H  0.74172738  0.20012453  0.02581083     0.12400
C267        C  0.24515127  0.22162651  0.01404213    -0.13700
C268        C  0.19970898  0.24623739  0.00239519     0.08400
C269        C  0.20569095  0.27462142  0.48844670    -0.13700
C270        C  0.25588538  0.27830639  0.48620360    -0.13700
C271        C  0.30132747  0.25370543  0.49786424     0.08400
C272        C  0.29534892  0.22531227  0.01179998    -0.13700
H273        H  0.24202895  0.19942189  0.02493743     0.12400
H274        H  0.17158768  0.29402182  0.47919997     0.12400
H275        H  0.25900280  0.30051236  0.47530843     0.12400
H276        H  0.32945444  0.20591384  0.02104711     0.12400
C277        C  0.94921920  0.25921675  0.38467005    -0.13700
C278        C  0.99109147  0.26252499  0.40575917     0.08400
C279        C  0.04239811  0.25360136  0.39616388    -0.13700
C280        C  0.05162971  0.24162866  0.36613497    -0.13700
C281        C  0.00976863  0.23827981  0.34505625     0.08400
C282        C  0.95845185  0.24724193  0.35464004    -0.13700
H283        H  0.90923830  0.26577238  0.39136413     0.12400
H284        H  0.07555013  0.25572603  0.41188135     0.12400
H285        H  0.09161637  0.23505562  0.35944820     0.12400
H286        H  0.92530637  0.24509961  0.33892571     0.12400
C287        C  0.95865788  0.24679608  0.10436957    -0.13700
C288        C  0.01003162  0.23762433  0.09485263     0.08400
C289        C  0.05196035  0.24064212  0.11603044    -0.13700
C290        C  0.04272086  0.25254839  0.14607856    -0.13700
C291        C  0.99134100  0.26173768  0.15558931     0.08400
C292        C  0.94941909  0.25870172  0.13441462    -0.13700
H293        H  0.92545801  0.24491405  0.08857841     0.12400
H294        H  0.09199375  0.23388768  0.10939908     0.12400
H295        H  0.07591309  0.25444682  0.16186825     0.12400
H296        H  0.90937982  0.26546965  0.14103783     0.12400
O297        O  0.14338588  0.21555701  0.51686127    -0.81200
O298        O  0.89480520  0.23518199  0.50620459    -0.65900
O299        O  0.03874362  0.22396855  0.99317746    -1.12500
C300        C  0.99447910  0.34129917  0.99394402     1.05600
O301        O  0.85774997  0.28449977  0.98365401    -0.79100
O302        O  0.93476892  0.28159083  0.94584241    -0.66700
Ni303      Ni  0.09039329  0.19250287  0.51912490     1.34900
C304        C  0.98153302  0.27424104  0.93781063     0.84400
O305        O  0.97362759  0.18243878  0.49212911    -0.79700
O306        O  0.04646178  0.16313450  0.52325860    -0.90000
C307        C  0.85451645  0.25798870  0.99587434     0.84000
O308        O  0.06636452  0.21858321  0.55475769    -0.68200
O309        O  0.95465451  0.33700604  0.97745722    -0.87400
C310        C  0.01960281  0.22591130  0.56280117     0.84800
C311        C  0.00670873  0.15877489  0.50675000     1.06400
H312        H  0.95677991  0.28284194  0.52865708     0.38200
O313        O  0.96234773  0.27610822  0.50742568    -1.10100
O314        O  0.02046895  0.27684577  0.95644884    -0.66800
Ni315      Ni  0.03414894  0.27086997  0.00058346     1.26300
O316        O  0.98066859  0.22326576  0.54417734    -0.67000
O317        O  0.02751870  0.31760522  0.00853963    -0.79300
C318        C  0.14656566  0.24208411  0.50464995     0.84200
O319        O  0.10625110  0.26491510  0.99440914    -0.66500
Ni320      Ni  0.91071960  0.30760162  0.98149663     1.27400
Ni321      Ni  0.96694486  0.22920421  0.50004125     1.26100
H322        H  0.04430425  0.21724402  0.97195747     0.38700
O323        O  0.14335590  0.21561906  0.76717784    -0.81200
O324        O  0.89478942  0.23510609  0.75634689    -0.65900
O325        O  0.03880596  0.22377931  0.74342861    -1.12500
C326        C  0.99435802  0.34112752  0.74325427     1.05600
O327        O  0.85779376  0.28423893  0.73346587    -0.79100
O328        O  0.93492026  0.28096419  0.69560628    -0.66700
Ni329      Ni  0.09039390  0.19257362  0.76962468     1.34900
C330        C  0.98171335  0.27356583  0.68760978     0.84400
O331        O  0.97376132  0.18223433  0.74272059    -0.79700
O332        O  0.04649718  0.16322966  0.77399865    -0.90000
C333        C  0.85452489  0.25784233  0.74587379     0.84000
O334        O  0.06617786  0.21898591  0.80504959    -0.68200
O335        O  0.95464682  0.33666116  0.72677084    -0.87400
C336        C  0.01939008  0.22636887  0.81305561     0.84800
C337        C  0.00684192  0.15870252  0.75750152     1.06400
H338        H  0.95664694  0.28297719  0.77842824     0.38200
O339        O  0.96229478  0.27604359  0.75724941    -1.10100
O340        O  0.02060448  0.27627108  0.70623998    -0.66800
Ni341      Ni  0.03411722  0.27074605  0.75043609     1.26300
O342        O  0.98050987  0.22358062  0.79445186    -0.67000
O343        O  0.02738896  0.31756191  0.75801222    -0.79300
C344        C  0.14654539  0.24202120  0.75474351     0.84200
O345        O  0.10624357  0.26473533  0.74430636    -0.66500
Ni346      Ni  0.91074137  0.30729740  0.73107926     1.27400
Ni347      Ni  0.96697544  0.22907251  0.75024926     1.26100
H348        H  0.04446446  0.21684303  0.72224575     0.38700
O349        O  0.64323750  0.21572159  0.51674976    -0.81200
O350        O  0.39478925  0.23509871  0.50592226    -0.65900
O351        O  0.53868597  0.22400468  0.99295049    -1.12500
C352        C  0.49411668  0.34135066  0.99355117     1.05600
O353        O  0.35760530  0.28443096  0.98343565    -0.79100
O354        O  0.43459322  0.28148436  0.94555948    -0.66700
Ni355      Ni  0.59033932  0.19256550  0.51891027     1.34900
C356        C  0.48136180  0.27414685  0.93752809     0.84400
O357        O  0.47362033  0.18244380  0.49185579    -0.79700
O358        O  0.54648246  0.16311438  0.52295857    -0.90000
C359        C  0.35445834  0.25789608  0.99564692     0.84000
O360        O  0.56621535  0.21858607  0.55454521    -0.68200
O361        O  0.45436935  0.33696530  0.97705575    -0.87400
C362        C  0.51944781  0.22589987  0.56256563     0.84800
C363        C  0.50668468  0.15877895  0.50647325     1.06400
H364        H  0.45663460  0.28285075  0.52836515     0.38200
O365        O  0.46220914  0.27611568  0.50714905    -1.10100
O366        O  0.52028760  0.27680747  0.95615128    -0.66800
Ni367      Ni  0.53400126  0.27092455  0.00029215     1.26300
O368        O  0.48053835  0.22326639  0.54391805    -0.67000
O369        O  0.52723931  0.31770309  0.00816771    -0.79300
C370        C  0.64643995  0.24222148  0.50449512     0.84200
O371        O  0.60613341  0.26499223  0.99413026    -0.66500
Ni372      Ni  0.41052060  0.30754622  0.98118791     1.27400
Ni373      Ni  0.46689247  0.22919575  0.49977541     1.26100
H374        H  0.54428131  0.21725177  0.97172436     0.38700
O375        O  0.64311586  0.21583604  0.76691943    -0.81200
O376        O  0.39471209  0.23516774  0.75606502    -0.65900
O377        O  0.53863755  0.22397420  0.74311914    -1.12500
C378        C  0.49388095  0.34132608  0.74293612     1.05600
O379        O  0.35754342  0.28426732  0.73317974    -0.79100
O380        O  0.43470212  0.28101050  0.69533444    -0.66700
Ni381      Ni  0.59024106  0.19271552  0.76926567     1.34900
C382        C  0.48148958  0.27367039  0.68733519     0.84400
O383        O  0.47362165  0.18239746  0.74233916    -0.79700
O384        O  0.54641395  0.16329954  0.77354201    -0.88000
C385        C  0.35438984  0.25785520  0.74561143     0.84000
O386        O  0.56604741  0.21897835  0.80476525    -0.68200
O387        O  0.45424387  0.33678040  0.72643384    -0.87400
C388        C  0.51925247  0.22637620  0.81275682     0.84800
C389        C  0.50668499  0.15883354  0.75707943     1.06400
H390        H  0.45638195  0.28311351  0.77814791     0.38200
O391        O  0.46205803  0.27618787  0.75695446    -1.10100
O392        O  0.52034966  0.27647126  0.70595014    -0.66800
Ni393      Ni  0.53387649  0.27095624  0.75015174     1.26300
O394        O  0.48035745  0.22368115  0.79412475    -0.67000
O395        O  0.52700067  0.31780035  0.75770363    -0.79300
C396        C  0.64634745  0.24226321  0.75455043     0.84200
O397        O  0.60606252  0.26498548  0.74407682    -0.66500
Ni398      Ni  0.41042964  0.30737798  0.73077057     1.27400
Ni399      Ni  0.46682584  0.22921608  0.74993364     1.26100
H400        H  0.54428365  0.21706570  0.72194528     0.38700
O401        O  0.04694092  0.44587288  0.00084397    -0.74800
O402        O  0.04281547  0.03943335  0.00455021    -0.74800
O403        O  0.04475053  0.49311518  0.54667814    -0.74900
O404        O  0.04485073  0.49226938  0.95872544    -0.74900
O405        O  0.95694973  0.00682957  0.95423509    -0.74800
O406        O  0.95685011  0.00768218  0.54218649    -0.74800
O407        O  0.95472546  0.05407682  0.50004993    -0.74800
O408        O  0.95884920  0.46054165  0.49635096    -0.74900
Ni409      Ni  0.04797933  0.49215797  0.00286268     1.25400
Ni410      Ni  0.95371002  0.00779868  0.49804662     1.25400
C411        C  0.00348937  0.43797216  0.99800138     0.87400
C412        C  0.99815735  0.06199449  0.50287097     0.87300
C413        C  0.00078958  0.00048326  0.55898925     0.87400
C414        C  0.00091123  0.49944861  0.94192403     0.87500
O415        O  0.95688505  0.00716496  0.79218549    -0.74800
O416        O  0.95684940  0.50724926  0.70426712    -0.74800
O417        O  0.95866623  0.46049837  0.74592965    -0.74900
O418        O  0.95485815  0.05400845  0.75050983    -0.74900
O419        O  0.04294946  0.03925668  0.75497232    -0.74800
O420        O  0.04675790  0.44572637  0.75039015    -0.74800
O421        O  0.04475619  0.49257986  0.70872581    -0.74800
O422        O  0.04478920  0.49249527  0.79664023    -0.74900
Ni423      Ni  0.95368128  0.00774891  0.74806435     1.25400
Ni424      Ni  0.04795114  0.49199390  0.75284309     1.25400
C425        C  0.00084769  0.99978797  0.80896424     0.87400
C426        C  0.00079779  0.49996341  0.69194468     0.87300
C427        C  0.00326016  0.43787708  0.74743284     0.87400
C428        C  0.99834070  0.06186978  0.75345046     0.87500
O429        O  0.45621587  0.00705962  0.95374975    -0.74800
O430        O  0.45614287  0.00784257  0.54169248    -0.74800
O431        O  0.45416236  0.05425019  0.49961108    -0.74900
O432        O  0.45806374  0.46072612  0.49583375    -0.74900
O433        O  0.54615688  0.44600417  0.00031947    -0.74800
O434        O  0.54225696  0.03950225  0.50409780    -0.74800
O435        O  0.54404970  0.99319415  0.54617971    -0.74800
O436        O  0.54412451  0.49241411  0.95822010    -0.74900
Ni437      Ni  0.45300691  0.00798779  0.49756063     1.25400
Ni438      Ni  0.54728449  0.49225967  0.00236267     1.25400
C439        C  0.50017364  0.49965733  0.94142647     0.87400
C440        C  0.50008112  0.00060616  0.55849269     0.87300
C441        C  0.49765108  0.06210545  0.50245652     0.87400
C442        C  0.50268843  0.43813175  0.99748943     0.87500
O443        O  0.45606365  0.00752329  0.70376307    -0.74800
O444        O  0.45607264  0.00749991  0.79168685    -0.74800
O445        O  0.45417617  0.05429941  0.74999528    -0.74900
O446        O  0.45779014  0.46080418  0.74545580    -0.74900
O447        O  0.54588419  0.44598449  0.74992540    -0.74800
O448        O  0.54227117  0.03945758  0.75445383    -0.74800
O449        O  0.54398471  0.49276208  0.79613831    -0.74800
O450        O  0.54397556  0.49277388  0.70822463    -0.74900
Ni451      Ni  0.45288409  0.00805420  0.74756467     1.25400
Ni452      Ni  0.54716242  0.49222214  0.75234310     1.25400
C453        C  0.50002059  0.50018744  0.69144100     0.87400
C454        C  0.50003495  0.00009914  0.80846568     0.87300
C455        C  0.49770684  0.06210685  0.75294262     0.87400
C456        C  0.50237007  0.43816293  0.74698963     0.87500
C457        C  0.54769970  0.99351315  0.89346534    -0.13700
C458        C  0.50016197  0.49959351  0.90739577     0.08400
C459        C  0.45258033  0.50581261  0.88846721    -0.13700
C460        C  0.45253308  0.50600583  0.85641417    -0.13700
C461        C  0.50006647  0.99996487  0.84248641     0.08400
C462        C  0.54765239  0.99370521  0.86141275    -0.13700
H463        H  0.58505589  0.98869631  0.90733409     0.12400
H464        H  0.41525079  0.51053759  0.89840718     0.12400
H465        H  0.41517454  0.51084439  0.84254552     0.12400
H466        H  0.58497891  0.98900262  0.85147396     0.12400
C467        C  0.45246456  0.00684690  0.60642771    -0.13700
C468        C  0.50004326  0.00069204  0.59251991     0.08400
C469        C  0.54760560  0.49442153  0.61146700    -0.13700
C470        C  0.54759746  0.49423519  0.64351646    -0.13700
C471        C  0.50002660  0.50033520  0.65742244     0.08400
C472        C  0.45245637  0.00666167  0.63847738    -0.13700
H473        H  0.41511972  0.01171511  0.59254227     0.12400
H474        H  0.58496032  0.48964601  0.60154554     0.12400
H475        H  0.58494452  0.48934950  0.65740095     0.12400
H476        H  0.41510394  0.01141865  0.64839753     0.12400
C477        C  0.04846903  0.99331891  0.89397373    -0.13700
C478        C  0.00092638  0.49933200  0.90789490     0.08400
C479        C  0.95336919  0.50543335  0.88895560    -0.13700
C480        C  0.95334060  0.50559736  0.85690317    -0.13700
C481        C  0.00087445  0.99964252  0.84298388     0.08400
C482        C  0.04844069  0.99348131  0.86192071    -0.13700
H483        H  0.08580761  0.98858790  0.90785242     0.12400
H484        H  0.91604362  0.51009460  0.89888704     0.12400
H485        H  0.91599824  0.51035327  0.84302605     0.12400
H486        H  0.08576251  0.98884550  0.85199042     0.12400
C487        C  0.95321873  0.00654832  0.60692883    -0.13700
C488        C  0.00076718  0.00054972  0.59301890     0.08400
C489        C  0.04831663  0.49440117  0.61196907    -0.13700
C490        C  0.04832915  0.49418627  0.64401899    -0.13700
C491        C  0.00078738  0.50013518  0.65792621     0.08400
C492        C  0.95323109  0.00633473  0.63897896    -0.13700
H493        H  0.91588318  0.01131192  0.59304411     0.12400
H494        H  0.08564953  0.48974477  0.60204707     0.12400
H495        H  0.08566763  0.48940140  0.65790298     0.12400
H496        H  0.91590169  0.01096902  0.64890028     0.12400
C497        C  0.49908147  0.12578434  0.75568240    -0.13600
C498        C  0.49679237  0.09702289  0.75448694    -0.15200
C499        C  0.50336256  0.40323315  0.74549366    -0.13600
C500        C  0.50128903  0.37442677  0.74433467    -0.15200
C501        C  0.49665188  0.09702181  0.50379026    -0.13600
C502        C  0.49896757  0.12576971  0.50495066    -0.15200
C503        C  0.50167393  0.37440439  0.99507553    -0.13600
C504        C  0.50377432  0.40319849  0.99619842    -0.15200
C505        C  0.55166743  0.24072752  0.86608275    -0.13700
C506        C  0.50962371  0.23820881  0.84477349     0.08400
C507        C  0.45813446  0.24794512  0.85414034    -0.13700
C508        C  0.44890257  0.25988830  0.88417869    -0.13700
C509        C  0.49095010  0.26239561  0.90548950     0.08400
C510        C  0.54243586  0.25267091  0.89611853    -0.13700
H511        H  0.59179854  0.23351514  0.85957459     0.12400
H512        H  0.42484916  0.24647162  0.83823859     0.12400
H513        H  0.40877539  0.26709276  0.89069270     0.12400
H514        H  0.57572622  0.25413467  0.91202058     0.12400
C515        C  0.54248472  0.25273987  0.64578841    -0.13700
C516        C  0.49113486  0.26179298  0.65532918     0.08400
C517        C  0.44926193  0.25856617  0.63420168    -0.13700
C518        C  0.45851668  0.24662024  0.60416822    -0.13700
C519        C  0.50985764  0.23760130  0.59461721     0.08400
C520        C  0.55174026  0.24079163  0.61575408    -0.13700
H521        H  0.57563941  0.25478483  0.66154147     0.12400
H522        H  0.40924736  0.26521794  0.64085242     0.12400
H523        H  0.42535561  0.24459404  0.58841152     0.12400
H524        H  0.59174916  0.23415797  0.60909612     0.12400
C525        C  0.99728880  0.09681137  0.75496021    -0.13600
C526        C  0.99937414  0.12561623  0.75611899    -0.15200
C527        C  0.00424167  0.40294572  0.74586777    -0.13600
C528        C  0.00197332  0.37417748  0.74465818    -0.15200
C529        C  0.75594254  0.27842304  0.73640828    -0.13700
C530        C  0.80131244  0.25374889  0.74806243     0.08400
C531        C  0.79517924  0.22536017  0.76192407    -0.13700
C532        C  0.74491804  0.22173124  0.76407175    -0.13700
C533        C  0.69954796  0.24639608  0.75240407     0.08400
C534        C  0.70567822  0.27479409  0.73855627    -0.13700
H535        H  0.75917087  0.30064041  0.72558291     0.12400
H536        H  0.82921526  0.20590619  0.77116311     0.12400
H537        H  0.74169488  0.19951109  0.77489468     0.12400
H538        H  0.67164032  0.29424465  0.72931435     0.12400
C539        C  0.24514988  0.22151992  0.76400347    -0.13700
C540        C  0.19968030  0.24617472  0.75245665     0.08400
C541        C  0.20562067  0.27461609  0.73858440    -0.13700
C542        C  0.25579928  0.27831635  0.73632014    -0.13700
C543        C  0.30126891  0.25366897  0.74787538     0.08400
C544        C  0.29533268  0.22522066  0.76173931    -0.13700
H545        H  0.24206139  0.19926489  0.77482710     0.12400
H546        H  0.17149468  0.29405725  0.72942357     0.12400
H547        H  0.25888225  0.30057273  0.72549637     0.12400
H548        H  0.32946192  0.20578143  0.77089955     0.12400
C549        C  0.99699848  0.09694044  0.50412377    -0.13600
C550        C  0.99909480  0.12573545  0.50522483    -0.15200
C551        C  0.00225008  0.37429453  0.99549517    -0.13600
C552        C  0.00456263  0.40304330  0.99667096    -0.15200
C553        C  0.79519491  0.22575547  0.51240729    -0.13700
C554        C  0.80132957  0.25383518  0.99801961     0.08400
C555        C  0.75598770  0.27815072  0.98582289    -0.13700
C556        C  0.70574666  0.27447808  0.98796542    -0.13700
C557        C  0.69961527  0.24639604  0.50235289     0.08400
C558        C  0.74495796  0.22208366  0.51455068    -0.13700
H559        H  0.82921006  0.20659560  0.52209234     0.12400
H560        H  0.75922428  0.30010743  0.97456098     0.12400
H561        H  0.67172875  0.29363542  0.97827956     0.12400
H562        H  0.74172732  0.20012450  0.52581101     0.12400
C563        C  0.24515125  0.22162647  0.51404222    -0.13700
C564        C  0.19970900  0.24623736  0.50239526     0.08400
C565        C  0.20569086  0.27462152  0.98844666    -0.13700
C566        C  0.25588538  0.27830647  0.98620363    -0.13700
C567        C  0.30132748  0.25370547  0.99786435     0.08400
C568        C  0.29534891  0.22531221  0.51179989    -0.13700
H569        H  0.24202891  0.19942193  0.52493760     0.12400
H570        H  0.17158759  0.29402188  0.97919994     0.12400
H571        H  0.25900294  0.30051238  0.97530845     0.12400
H572        H  0.32945445  0.20591378  0.52104693     0.12400
C573        C  0.94921932  0.25921670  0.88467009    -0.13700
C574        C  0.99109154  0.26252496  0.90575919     0.08400
C575        C  0.04239818  0.25360131  0.89616393    -0.13700
C576        C  0.05162974  0.24162861  0.86613501    -0.13700
C577        C  0.00976863  0.23827978  0.84505628     0.08400
C578        C  0.95845187  0.24724188  0.85464008    -0.13700
H579        H  0.90923845  0.26577236  0.89136419     0.12400
H580        H  0.07555022  0.25572597  0.91188140     0.12400
H581        H  0.09161637  0.23505556  0.85944822     0.12400
H582        H  0.92530632  0.24509959  0.83892579     0.12400
C583        C  0.95865799  0.24679606  0.60436959    -0.13700
C584        C  0.01003167  0.23762431  0.59485264     0.08400
C585        C  0.05196034  0.24064207  0.61603046    -0.13700
C586        C  0.04272082  0.25254834  0.64607858    -0.13700
C587        C  0.99134098  0.26173762  0.65558932     0.08400
C588        C  0.94941914  0.25870166  0.63441461    -0.13700
H589        H  0.92545812  0.24491405  0.58857842     0.12400
H590        H  0.09199374  0.23388761  0.60939910     0.12400
H591        H  0.07591303  0.25444676  0.66186829     0.12400
H592        H  0.90937982  0.26546958  0.64103779     0.12400
O593        O  0.14338585  0.71555647  0.01686132    -0.81200
O594        O  0.89480494  0.73518249  0.00620458    -0.65900
O595        O  0.03874357  0.72396838  0.49317749    -1.12500
C596        C  0.99448019  0.84129896  0.49394374     1.05600
O597        O  0.85775011  0.78450028  0.48365414    -0.79100
O598        O  0.93476926  0.78159084  0.44584248    -0.66700
Ni599      Ni  0.09039292  0.69250257  0.01912494     1.34900
C600        C  0.98153336  0.77424099  0.43781066     0.84400
O601        O  0.97362690  0.68243901  0.99212919    -0.79700
O602        O  0.04646098  0.66313450  0.02325872    -0.90000
C603        C  0.85451641  0.75798925  0.49587443     0.84000
O604        O  0.06636436  0.71858296  0.05475772    -0.68200
O605        O  0.95465532  0.83700597  0.47745713    -0.87400
C606        C  0.01960260  0.72591132  0.06280119     0.84800
C607        C  0.00670765  0.65877510  0.00675029     1.06400
H608        H  0.95678040  0.78284205  0.02865697     0.38200
O609        O  0.96234803  0.77610833  0.00742573    -1.10100
O610        O  0.02046939  0.77684556  0.45644886    -0.66800
Ni611      Ni  0.03414932  0.77086978  0.50058348     1.26300
O612        O  0.98066826  0.72326600  0.04417735    -0.67000
O613        O  0.02751956  0.81760501  0.50853947    -0.79300
C614        C  0.14656592  0.74208346  0.00464991     0.84200
O615        O  0.10625153  0.76491460  0.49440927    -0.66500
Ni616      Ni  0.91072012  0.80760179  0.48149666     1.27400
Ni617      Ni  0.96694470  0.72920436  0.00004127     1.26100
H618        H  0.04430406  0.71724380  0.47195751     0.38700
O619        O  0.14335599  0.71561833  0.26717752    -0.81200
O620        O  0.89478916  0.73510669  0.25634708    -0.65900
O621        O  0.03880583  0.72377917  0.24342864    -1.12500
C622        C  0.99435941  0.84112728  0.24325395     1.05600
O623        O  0.85779386  0.78423956  0.23346604    -0.79100
O624        O  0.93492056  0.78096429  0.19560634    -0.66700
Ni625      Ni  0.09039352  0.69257328  0.26962463     1.34900
C626        C  0.98171365  0.77356572  0.18760981     0.84400
O627        O  0.97376049  0.68223459  0.24272081    -0.79700
O628        O  0.04649632  0.66322969  0.27399883    -0.90000
C629        C  0.85452476  0.75784303  0.24587402     0.84000
O630        O  0.06617792  0.71898574  0.30504956    -0.68200
O631        O  0.95464787  0.83666110  0.22677071    -0.87400
C632        C  0.01939013  0.72636898  0.31305562     0.84800
C633        C  0.00684075  0.65870275  0.25750189     1.06400
H634        H  0.95664741  0.78297736  0.27842817     0.38200
O635        O  0.96229514  0.77604376  0.25724951    -1.10100
O636        O  0.02060492  0.77627083  0.20623997    -0.66800
Ni637      Ni  0.03411766  0.77074585  0.25043608     1.26300
O638        O  0.98050974  0.72358092  0.29445194    -0.67000
O639        O  0.02739001  0.81756167  0.25801207    -0.79300
C640        C  0.14654572  0.74202047  0.25474327     0.84200
O641        O  0.10624404  0.76473481  0.24430631    -0.66500
Ni642      Ni  0.91074198  0.80729766  0.23107930     1.27400
Ni643      Ni  0.96697523  0.72907273  0.25024935     1.26100
H644        H  0.04446423  0.71684286  0.22224574     0.38700
O645        O  0.64323770  0.71572211  0.01674987    -0.81200
O646        O  0.39478967  0.73509825  0.00592237    -0.65900
O647        O  0.53868620  0.72400477  0.49295048    -1.12500
C648        C  0.49411564  0.84135085  0.49355142     1.05600
O649        O  0.35760530  0.78443046  0.48343555    -0.79100
O650        O  0.43459315  0.78148434  0.44555942    -0.66700
Ni651      Ni  0.59033983  0.69256573  0.01891025     1.34900
C652        C  0.48136172  0.77414694  0.43752805     0.84400
O653        O  0.47362106  0.68244362  0.99185576    -0.79700
O654        O  0.54648336  0.66311437  0.02295844    -0.90000
C655        C  0.35445854  0.75789556  0.49564689     0.84000
O656        O  0.56621559  0.71858615  0.05454522    -0.68200
O657        O  0.45436857  0.83696535  0.47705584    -0.87400
C658        C  0.51944804  0.72589979  0.06256565     0.84800
C659        C  0.50668576  0.65877878  0.00647304     1.06400
H660        H  0.45663468  0.78285051  0.02836506     0.38200
O661        O  0.46220911  0.77611554  0.00714914    -1.10100
O662        O  0.52028745  0.77680767  0.45615126    -0.66800
Ni663      Ni  0.53400110  0.77092468  0.50029216     1.26300
O664        O  0.48053869  0.72326617  0.04391808    -0.67000
O665        O  0.52723858  0.81770328  0.50816779    -0.79300
C666        C  0.64643996  0.74222201  0.00449519     0.84200
O667        O  0.60613327  0.76499259  0.49413024    -0.66500
Ni668      Ni  0.41052027  0.80754599  0.48118791     1.27400
Ni669      Ni  0.46689281  0.72919555  0.99977544     1.26100
H670        H  0.54428144  0.71725193  0.47172440     0.38700
O671        O  0.64311586  0.71583661  0.26691965    -0.81200
O672        O  0.39471246  0.73516720  0.25606495    -0.65900
O673        O  0.53863779  0.72397432  0.24311921    -1.12500
C674        C  0.49387987  0.84132632  0.24293646     1.05600
O675        O  0.35754350  0.78426676  0.23317969    -0.79100
O676        O  0.43470214  0.78101038  0.19533447    -0.66700
Ni677      Ni  0.59024145  0.69271574  0.26926572     1.34900
C678        C  0.48148959  0.77367048  0.18733520     0.84400
O679        O  0.47362252  0.68239721  0.24233896    -0.79700
O680        O  0.54641478  0.66329946  0.27354188    -0.88000
C681        C  0.35439011  0.75785456  0.24561131     0.84000
O682        O  0.56604750  0.71897835  0.30476532    -0.68200
O683        O  0.45424311  0.83678041  0.22643402    -0.87400
C684        C  0.51925257  0.72637603  0.31275687     0.84800
C685        C  0.50668609  0.65883329  0.25707914     1.06400
H686        H  0.45638172  0.78311333  0.27814815     0.38200
O687        O  0.46205792  0.77618769  0.25695448    -1.10100
O688        O  0.52034958  0.77647139  0.20595021    -0.66800
Ni689      Ni  0.53387629  0.77095642  0.25015185     1.26300
O690        O  0.48035765  0.72368088  0.29412475    -0.67000
O691        O  0.52699995  0.81780060  0.25770381    -0.79300
C692        C  0.64634727  0.74226381  0.25455067     0.84200
O693        O  0.60606225  0.76498597  0.24407697    -0.66500
Ni694      Ni  0.41042937  0.80737769  0.23077064     1.27400
Ni695      Ni  0.46682615  0.72921588  0.24993364     1.26100
H696        H  0.54428398  0.71706587  0.22194535     0.38700
O697        O  0.04694352  0.94587227  0.50084243    -0.74800
O698        O  0.04281274  0.53943390  0.50455184    -0.74800
O699        O  0.04475322  0.99311464  0.04667655    -0.74900
O700        O  0.04485329  0.99226886  0.45872387    -0.74900
O701        O  0.95694692  0.50683015  0.45423663    -0.74800
O702        O  0.95684745  0.50768285  0.04218810    -0.74800
O703        O  0.95472291  0.55407748  0.00005150    -0.74800
O704        O  0.95885187  0.96054109  0.99634941    -0.74900
Ni705      Ni  0.04798192  0.99215739  0.50286111     1.25400
Ni706      Ni  0.95370744  0.50779934  0.99804823     1.25400
C707        C  0.00349196  0.93797155  0.49799987     0.87400
C708        C  0.99815484  0.56199510  0.00287249     0.87300
C709        C  0.00078692  0.50048387  0.05899085     0.87400
C710        C  0.00091381  0.99944807  0.44192245     0.87500
O711        O  0.95688228  0.50716553  0.29218704    -0.74800
O712        O  0.95685212  0.00724853  0.20426555    -0.74800
O713        O  0.95866893  0.96049780  0.24592819    -0.74900
O714        O  0.95485551  0.55400907  0.25051140    -0.74900
O715        O  0.04294683  0.53925727  0.25497391    -0.74800
O716        O  0.04676061  0.94572575  0.25038861    -0.74800
O717        O  0.04475892  0.99257922  0.20872428    -0.74800
O718        O  0.04479186  0.99249472  0.29663867    -0.74900
Ni719      Ni  0.95367860  0.50774953  0.24806591     1.25400
Ni720      Ni  0.04795380  0.99199332  0.25284156     1.25400
C721        C  0.00084491  0.49978855  0.30896580     0.87400
C722        C  0.00080052  0.99996272  0.19194313     0.87300
C723        C  0.00326283  0.93787649  0.24743143     0.87400
C724        C  0.99833808  0.56187037  0.25345199     0.87500
O725        O  0.45621814  0.50705902  0.45374829    -0.74800
O726        O  0.45614516  0.50784210  0.04169108    -0.74800
O727        O  0.45416458  0.55424975  0.99960962    -0.74900
O728        O  0.45806150  0.96072663  0.99583517    -0.74900
O729        O  0.54615465  0.94600468  0.50032089    -0.74800
O730        O  0.54225919  0.53950181  0.00409653    -0.74800
O731        O  0.54405201  0.49319357  0.04617832    -0.74800
O732        O  0.54412220  0.99241454  0.45822146    -0.74900
Ni733      Ni  0.45300916  0.50798735  0.99755923     1.25400
Ni734      Ni  0.54728223  0.99226016  0.50236403     1.25400
C735        C  0.50017134  0.99965779  0.44142788     0.87400
C736        C  0.50008342  0.50060560  0.05849129     0.87300
C737        C  0.49765328  0.56210501  0.00245521     0.87400
C738        C  0.50268624  0.93813221  0.49749074     0.87500
O739        O  0.45606606  0.50752279  0.20376164    -0.74800
O740        O  0.45607509  0.50749925  0.29168541    -0.74800
O741        O  0.45417854  0.55429884  0.24999391    -0.74900
O742        O  0.45778776  0.96080471  0.24545715    -0.74900
O743        O  0.54588181  0.94598508  0.24992677    -0.74800
O744        O  0.54227353  0.53945704  0.25445239    -0.74800
O745        O  0.54398226  0.99276268  0.29613973    -0.74800
O746        O  0.54397316  0.99277436  0.20822603    -0.74900
Ni747      Ni  0.45288646  0.50805365  0.24756322     1.25400
Ni748      Ni  0.54716002  0.99222271  0.25234449     1.25400
C749        C  0.50001817  0.00018796  0.19144241     0.87400
C750        C  0.50003741  0.50009851  0.30846423     0.87300
C751        C  0.49770918  0.56210629  0.25294132     0.87400
C752        C  0.50236771  0.93816349  0.24699091     0.87500
C753        C  0.54770218  0.49351250  0.39346392    -0.13700
C754        C  0.50015966  0.99959406  0.40739721     0.08400
C755        C  0.45257799  0.00581316  0.38846868    -0.13700
C756        C  0.45253056  0.00600640  0.35641564    -0.13700
C757        C  0.50006893  0.49996416  0.34248494     0.08400
C758        C  0.54765489  0.49370447  0.36141132    -0.13700
H759        H  0.58505838  0.48869571  0.40733270     0.12400
H760        H  0.41524855  0.01053811  0.39840874     0.12400
H761        H  0.41517195  0.01084495  0.34254705     0.12400
H762        H  0.58498141  0.48900183  0.35147253     0.12400
C763        C  0.45246693  0.50684638  0.10642630    -0.13700
C764        C  0.50004557  0.50069149  0.09251848     0.08400
C765        C  0.54760308  0.99442212  0.11146854    -0.13700
C766        C  0.54759508  0.99423577  0.14351800    -0.13700
C767        C  0.50002411  0.00033577  0.15742392     0.08400
C768        C  0.45245892  0.50666115  0.13847593    -0.13700
H769        H  0.41512199  0.51171460  0.09254095     0.12400
H770        H  0.58495778  0.98964664  0.10154707     0.12400
H771        H  0.58494218  0.98935008  0.15740245     0.12400
H772        H  0.41510646  0.51141815  0.14839609     0.12400
C773        C  0.04846634  0.49331948  0.39397529    -0.13700
C774        C  0.00092903  0.99933145  0.40789330     0.08400
C775        C  0.95337183  0.00543283  0.38895403    -0.13700
C776        C  0.95334335  0.00559679  0.35690160    -0.13700
C777        C  0.00087164  0.49964310  0.34298544     0.08400
C778        C  0.04843789  0.49348189  0.36192227    -0.13700
H779        H  0.08580496  0.48858844  0.40785396     0.12400
H780        H  0.91604620  0.01009410  0.39888544     0.12400
H781        H  0.91600103  0.01035266  0.34302445     0.12400
H782        H  0.08575967  0.48884610  0.35199195     0.12400
C783        C  0.95321615  0.50654892  0.10693044    -0.13700
C784        C  0.00076451  0.50055031  0.09302051     0.08400
C785        C  0.04831935  0.99440066  0.11196752    -0.13700
C786        C  0.04833177  0.99418573  0.14401745    -0.13700
C787        C  0.00079003  0.00013456  0.15792468     0.08400
C788        C  0.95322844  0.50633541  0.13898053    -0.13700
H789        H  0.91588058  0.51131247  0.09304575     0.12400
H790        H  0.08565227  0.98974425  0.10204556     0.12400
H791        H  0.08567021  0.98940085  0.15790147     0.12400
H792        H  0.91589892  0.51096981  0.14890176     0.12400
C793        C  0.49908319  0.62578392  0.25568179    -0.13600
C794        C  0.49679457  0.59702236  0.25448598    -0.15200
C795        C  0.50336036  0.90323367  0.24549470    -0.13600
C796        C  0.50128721  0.87442722  0.24433536    -0.15200
C797        C  0.49665398  0.59702139  0.00378927    -0.13600
C798        C  0.49896928  0.62576938  0.00495011    -0.15200
C799        C  0.50167222  0.87440477  0.49507619    -0.13600
C800        C  0.50377226  0.90319894  0.49619947    -0.15200
C801        C  0.55166732  0.74072757  0.36608276    -0.13700
C802        C  0.50962373  0.73820864  0.34477352     0.08400
C803        C  0.45813454  0.74794487  0.35414039    -0.13700
C804        C  0.44890254  0.75988812  0.38417869    -0.13700
C805        C  0.49095006  0.76239563  0.40548948     0.08400
C806        C  0.54243582  0.75267102  0.39611853    -0.13700
H807        H  0.59179839  0.73351533  0.35957458     0.12400
H808        H  0.42484929  0.74647126  0.33823866     0.12400
H809        H  0.40877534  0.76709245  0.39069268     0.12400
H810        H  0.57572619  0.75413490  0.41202053     0.12400
C811        C  0.54248487  0.75274017  0.14578843    -0.13700
C812        C  0.49113502  0.76179312  0.15532918     0.08400
C813        C  0.44926220  0.75856607  0.13420163    -0.13700
C814        C  0.45851669  0.74662008  0.10416815    -0.13700
C815        C  0.50985774  0.73760129  0.09461720     0.08400
C816        C  0.55174040  0.74079185  0.11575407    -0.13700
H817        H  0.57563945  0.75478533  0.16154148     0.12400
H818        H  0.40924769  0.76521778  0.14085243     0.12400
H819        H  0.42535555  0.74459373  0.08841154     0.12400
H820        H  0.59174922  0.73415831  0.10909606     0.12400
C821        C  0.99728629  0.59681194  0.25496149    -0.13600
C822        C  0.99937216  0.62561669  0.25611984    -0.15200
C823        C  0.00424417  0.90294518  0.24586670    -0.13600
C824        C  0.00197537  0.87417705  0.24465744    -0.15200
C825        C  0.75594229  0.77842389  0.23640866    -0.13700
C826        C  0.80131222  0.75374973  0.24806277     0.08400
C827        C  0.79517905  0.72536101  0.26192445    -0.13700
C828        C  0.74491784  0.72173203  0.26407213    -0.13700
C829        C  0.69954775  0.74639684  0.25240440     0.08400
C830        C  0.70567796  0.77479491  0.23855663    -0.13700
H831        H  0.75917066  0.80064125  0.22558330     0.12400
H832        H  0.82921512  0.70590704  0.27116349     0.12400
H833        H  0.74169468  0.69951189  0.27489509     0.12400
H834        H  0.67164001  0.79424547  0.22931474     0.12400
C835        C  0.24515024  0.72151904  0.26400319    -0.13700
C836        C  0.19968070  0.74617380  0.25245630     0.08400
C837        C  0.20562113  0.77461506  0.23858394    -0.13700
C838        C  0.25579966  0.77831537  0.23631969    -0.13700
C839        C  0.30126924  0.75366813  0.24787508     0.08400
C840        C  0.29533300  0.72521985  0.26173901    -0.13700
H841        H  0.24206176  0.69926406  0.27482694     0.12400
H842        H  0.17149518  0.79405622  0.22942306     0.12400
H843        H  0.25888254  0.80057176  0.22549588     0.12400
H844        H  0.32946227  0.70578071  0.27089931     0.12400
C845        C  0.99699610  0.59694103  0.00412505    -0.13600
C846        C  0.99909286  0.62573592  0.00522563    -0.15200
C847        C  0.00225184  0.87429412  0.49549442    -0.13600
C848        C  0.00456506  0.90304273  0.49666978    -0.15200
C849        C  0.79519495  0.72575614  0.01240734    -0.13700
C850        C  0.80132948  0.75383586  0.49801968     0.08400
C851        C  0.75598757  0.77815142  0.48582294    -0.13700
C852        C  0.70574656  0.77447871  0.48796549    -0.13700
C853        C  0.69961522  0.74639669  0.00235296     0.08400
C854        C  0.74495804  0.72208438  0.01455072    -0.13700
H855        H  0.82921010  0.70659624  0.02209236     0.12400
H856        H  0.75922409  0.80010812  0.47456100     0.12400
H857        H  0.67172862  0.79363599  0.47827962     0.12400
H858        H  0.74172755  0.70012519  0.02581107     0.12400
C859        C  0.24515163  0.72162575  0.01404208    -0.13700
C860        C  0.19970932  0.74623664  0.00239518     0.08400
C861        C  0.20569128  0.77462067  0.48844669    -0.13700
C862        C  0.25588564  0.77830575  0.48620358    -0.13700
C863        C  0.30132776  0.75370478  0.49786426     0.08400
C864        C  0.29534931  0.72531148  0.01179985    -0.13700
H865        H  0.24202928  0.69942116  0.02493740     0.12400
H866        H  0.17158796  0.79402105  0.47920000     0.12400
H867        H  0.25900300  0.80051172  0.47530843     0.12400
H868        H  0.32945488  0.70591301  0.02104688     0.12400
C869        C  0.94921934  0.75921698  0.38467005    -0.13700
C870        C  0.99109179  0.76252501  0.40575922     0.08400
C871        C  0.04239848  0.75360121  0.39616401    -0.13700
C872        C  0.05162973  0.74162866  0.36613504    -0.13700
C873        C  0.00976860  0.73827994  0.34505628     0.08400
C874        C  0.95845175  0.74724213  0.35463998    -0.13700
H875        H  0.90923852  0.76577278  0.39136420     0.12400
H876        H  0.07555071  0.75572565  0.41188147     0.12400
H877        H  0.09161634  0.73505557  0.35944816     0.12400
H878        H  0.92530624  0.74509991  0.33892566     0.12400
C879        C  0.95865774  0.74679634  0.10436954    -0.13700
C880        C  0.01003153  0.73762434  0.09485262     0.08400
C881        C  0.05196043  0.74064180  0.11603044    -0.13700
C882        C  0.04272099  0.75254796  0.14607858    -0.13700
C883        C  0.99134112  0.76173748  0.15558933     0.08400
C884        C  0.94941905  0.75870189  0.13441461    -0.13700
H885        H  0.92545779  0.74491454  0.08857836     0.12400
H886        H  0.09199387  0.73388720  0.10939907     0.12400
H887        H  0.07591326  0.75444615  0.16186831     0.12400
H888        H  0.90937973  0.76547007  0.14103783     0.12400
O889        O  0.14338592  0.71555642  0.51686125    -0.81200
O890        O  0.89480496  0.73518248  0.50620462    -0.65900
O891        O  0.03874353  0.72396836  0.99317751    -1.12500
C892        C  0.99448029  0.84129893  0.99394376     1.05600
O893        O  0.85775013  0.78450027  0.98365404    -0.79100
O894        O  0.93476921  0.78159104  0.94584243    -0.66700
Ni895      Ni  0.09039298  0.69250257  0.51912492     1.34900
C896        C  0.98153334  0.77424103  0.93781066     0.84400
O897        O  0.97362690  0.68243900  0.49212925    -0.79700
O898        O  0.04646107  0.66313446  0.52325869    -0.90000
C899        C  0.85451640  0.75798925  0.99587436     0.84000
O900        O  0.06636440  0.71858309  0.55475766    -0.68200
O901        O  0.95465544  0.83700599  0.97745711    -0.87400
C902        C  0.01960268  0.72591133  0.56280118     0.84800
C903        C  0.00670766  0.65877508  0.50675033     1.06400
H904        H  0.95678031  0.78284205  0.52865708     0.38200
O905        O  0.96234805  0.77610830  0.50742568    -1.10100
O906        O  0.02046940  0.77684552  0.95644888    -0.66800
Ni907      Ni  0.03414932  0.77086974  0.00058347     1.26300
O908        O  0.98066835  0.72326596  0.54417736    -0.67000
O909        O  0.02751953  0.81760496  0.00853956    -0.79300
C910        C  0.14656591  0.74208347  0.50464995     0.84200
O911        O  0.10625151  0.76491455  0.99440916    -0.66500
Ni912      Ni  0.91072013  0.80760186  0.98149664     1.27400
Ni913      Ni  0.96694471  0.72920435  0.50004128     1.26100
H914        H  0.04430401  0.71724372  0.97195750     0.38700
O915        O  0.14335600  0.71561836  0.76717761    -0.81200
O916        O  0.89478921  0.73510666  0.75634709    -0.65900
O917        O  0.03880587  0.72377915  0.74342861    -1.12500
C918        C  0.99435935  0.84112727  0.74325386     1.05600
O919        O  0.85779389  0.78423953  0.73346605    -0.79100
O920        O  0.93492052  0.78096435  0.69560630    -0.66700
Ni921      Ni  0.09039353  0.69257334  0.76962469     1.34900
C922        C  0.98171364  0.77356572  0.68760980     0.84400
O923        O  0.97376052  0.68223458  0.74272078    -0.79700
O924        O  0.04649630  0.66322974  0.77399886    -0.90000
C925        C  0.85452479  0.75784302  0.74587406     0.84000
O926        O  0.06617793  0.71898589  0.80504958    -0.68200
O927        O  0.95464782  0.83666108  0.72677062    -0.87400
C928        C  0.01939017  0.72636902  0.81305563     0.84800
C929        C  0.00684078  0.65870276  0.75750190     1.06400
H930        H  0.95664744  0.78297733  0.77842820     0.38200
O931        O  0.96229518  0.77604372  0.75724941    -1.10100
O932        O  0.02060493  0.77627077  0.70623995    -0.66800
Ni933      Ni  0.03411768  0.77074582  0.75043602     1.26300
O934        O  0.98050984  0.72358090  0.79445192    -0.67000
O935        O  0.02738999  0.81756165  0.75801197    -0.79300
C936        C  0.14654575  0.74202045  0.75474328     0.84200
O937        O  0.10624407  0.76473473  0.74430622    -0.66500
Ni938      Ni  0.91074194  0.80729766  0.73107927     1.27400
Ni939      Ni  0.96697528  0.72907271  0.75024932     1.26100
H940        H  0.04446433  0.71684280  0.72224573     0.38700
O941        O  0.64323773  0.71572210  0.51674994    -0.81200
O942        O  0.39478957  0.73509830  0.50592242    -0.65900
O943        O  0.53868625  0.72400478  0.99295045    -1.12500
C944        C  0.49411568  0.84135086  0.99355144     1.05600
O945        O  0.35760537  0.78443046  0.98343561    -0.79100
O946        O  0.43459312  0.78148437  0.94555947    -0.66700
Ni947      Ni  0.59033985  0.69256572  0.51891029     1.34900
C948        C  0.48136168  0.77414698  0.93752808     0.84400
O949        O  0.47362105  0.68244363  0.49185580    -0.79700
O950        O  0.54648340  0.66311434  0.52295846    -0.90000
C951        C  0.35445862  0.75789554  0.99564692     0.84000
O952        O  0.56621565  0.71858615  0.55454524    -0.68200
O953        O  0.45436859  0.83696537  0.97705591    -0.87400
C954        C  0.51944812  0.72589983  0.56256567     0.84800
C955        C  0.50668580  0.65877877  0.50647305     1.06400
H956        H  0.45663456  0.78285058  0.52836517     0.38200
O957        O  0.46220906  0.77611554  0.50714911    -1.10100
O958        O  0.52028743  0.77680770  0.95615127    -0.66800
Ni959      Ni  0.53400116  0.77092469  0.00029214     1.26300
O960        O  0.48053874  0.72326616  0.54391813    -0.67000
O961        O  0.52723868  0.81770329  0.00816779    -0.79300
C962        C  0.64643996  0.74222196  0.50449517     0.84200
O963        O  0.60613330  0.76499266  0.99413028    -0.66500
Ni964      Ni  0.41052030  0.80754600  0.98118796     1.27400
Ni965      Ni  0.46689274  0.72919557  0.49977550     1.26100
H966        H  0.54428156  0.71725190  0.97172435     0.38700
O967        O  0.64311590  0.71583662  0.76691964    -0.81200
O968        O  0.39471254  0.73516724  0.75606495    -0.65900
O969        O  0.53863787  0.72397430  0.74311918    -1.12500
C970        C  0.49387991  0.84132632  0.74293645     1.05600
O971        O  0.35754352  0.78426671  0.73317956    -0.79100
O972        O  0.43470212  0.78101036  0.69533445    -0.66700
Ni973      Ni  0.59024150  0.69271571  0.76926571     1.34900
C974        C  0.48148957  0.77367047  0.68733519     0.84400
O975        O  0.47362249  0.68239721  0.74233900    -0.79700
O976        O  0.54641484  0.66329938  0.77354183    -0.88000
C977        C  0.35439016  0.75785454  0.74561126     0.84000
O978        O  0.56604749  0.71897834  0.80476531    -0.68200
O979        O  0.45424310  0.83678044  0.72643401    -0.87400
C980        C  0.51925258  0.72637600  0.81275688     0.84800
C981        C  0.50668607  0.65883326  0.75707912     1.06400
H982        H  0.45638188  0.78311335  0.77814795     0.38200
O983        O  0.46205797  0.77618773  0.75695448    -1.10100
O984        O  0.52034953  0.77647149  0.70595018    -0.66800
Ni985      Ni  0.53387635  0.77095642  0.75015179     1.26300
O986        O  0.48035765  0.72368089  0.79412475    -0.67000
O987        O  0.52700002  0.81780060  0.75770376    -0.79300
C988        C  0.64634732  0.74226385  0.75455067     0.84200
O989        O  0.60606230  0.76498600  0.74407697    -0.66500
Ni990      Ni  0.41042935  0.80737770  0.73077058     1.27400
Ni991      Ni  0.46682621  0.72921587  0.74993362     1.26100
H992        H  0.54428405  0.71706583  0.72194533     0.38700
O993        O  0.04694354  0.94587227  0.00084240    -0.74800
O994        O  0.04281281  0.53943392  0.00455179    -0.74800
O995        O  0.04475324  0.99311461  0.54667653    -0.74900
O996        O  0.04485340  0.99226882  0.95872386    -0.74900
O997        O  0.95694704  0.50683018  0.95423665    -0.74800
O998        O  0.95684741  0.50768274  0.54218810    -0.74800
O999        O  0.95472284  0.55407741  0.50005153    -0.74800
O1000       O  0.95885183  0.96054110  0.49634935    -0.74900
Ni1001     Ni  0.04798199  0.99215738  0.00286109     1.25400
Ni1002     Ni  0.95370735  0.50779926  0.49804823     1.25400
C1003       C  0.00349199  0.93797154  0.99799990     0.87400
C1004       C  0.99815476  0.56199507  0.50287250     0.87300
C1005       C  0.00078688  0.50048382  0.55899086     0.87400
C1006       C  0.00091391  0.99944804  0.94192246     0.87500
O1007       O  0.95688235  0.50716550  0.79218705    -0.74800
O1008       O  0.95685210  0.00724858  0.70426552    -0.74800
O1009       O  0.95866884  0.96049782  0.74592813    -0.74900
O1010       O  0.95485557  0.55400907  0.75051143    -0.74900
O1011       O  0.04294687  0.53925725  0.75497379    -0.74800
O1012       O  0.04676052  0.94572576  0.75038861    -0.74800
O1013       O  0.04475889  0.99257923  0.70872425    -0.74800
O1014       O  0.04479191  0.99249468  0.79663868    -0.74900
Ni1015     Ni  0.95367862  0.50774951  0.74806593     1.25400
Ni1016     Ni  0.04795379  0.99199331  0.75284154     1.25400
C1017       C  0.00084498  0.49978852  0.80896578     0.87400
C1018       C  0.00080052  0.99996275  0.69194309     0.87300
C1019       C  0.00326273  0.93787651  0.74743138     0.87400
C1020       C  0.99833817  0.56187035  0.75345194     0.87500
O1021       O  0.45621817  0.50705912  0.95374832    -0.74800
O1022       O  0.45614513  0.50784206  0.54169103    -0.74800
O1023       O  0.45416471  0.55424971  0.49960967    -0.74900
O1024       O  0.45806153  0.96072658  0.49583515    -0.74900
O1025       O  0.54615462  0.94600472  0.00032085    -0.74800
O1026       O  0.54225931  0.53950175  0.50409644    -0.74800
O1027       O  0.54405197  0.49319361  0.54617826    -0.74800
O1028       O  0.54412220  0.99241468  0.95822152    -0.74900
Ni1029     Ni  0.45300917  0.50798730  0.49755920     1.25400
Ni1030     Ni  0.54728222  0.99226021  0.00236409     1.25400
C1031       C  0.50017132  0.99965787  0.94142790     0.87400
C1032       C  0.50008339  0.50060562  0.55849124     0.87300
C1033       C  0.49765341  0.56210497  0.50245522     0.87400
C1034       C  0.50268621  0.93813226  0.99749072     0.87500
O1035       O  0.45606603  0.50752274  0.70376161    -0.74800
O1036       O  0.45607516  0.50749921  0.79168545    -0.74800
O1037       O  0.45417850  0.55429880  0.74999390    -0.74900
O1038       O  0.45778778  0.96080475  0.74545724    -0.74900
O1039       O  0.54588183  0.94598508  0.74992679    -0.74800
O1040       O  0.54227348  0.53945703  0.75445242    -0.74800
O1041       O  0.54398219  0.99276263  0.79613972    -0.74800
O1042       O  0.54397319  0.99277444  0.70822607    -0.74900
Ni1043     Ni  0.45288648  0.50805360  0.74756325     1.25400
Ni1044     Ni  0.54716004  0.99222271  0.75234453     1.25400
C1045       C  0.50001821  0.00018798  0.69144244     0.87400
C1046       C  0.50003750  0.50009849  0.80846428     0.87300
C1047       C  0.49770913  0.56210626  0.75294127     0.87400
C1048       C  0.50236773  0.93816350  0.74699098     0.87500
C1049       C  0.54770209  0.49351254  0.89346391    -0.13700
C1050       C  0.50015958  0.99959405  0.90739720     0.08400
C1051       C  0.45257785  0.00581316  0.88846869    -0.13700
C1052       C  0.45253050  0.00600641  0.85641562    -0.13700
C1053       C  0.50006912  0.49996417  0.84248498     0.08400
C1054       C  0.54765506  0.49370442  0.86141133    -0.13700
H1055       H  0.58505820  0.48869572  0.90733271     0.12400
H1056       H  0.41524838  0.01053813  0.89840872     0.12400
H1057       H  0.41517194  0.01084491  0.84254698     0.12400
H1058       H  0.58498169  0.48900168  0.85147262     0.12400
C1059       C  0.45246696  0.50684635  0.60642626    -0.13700
C1060       C  0.50004557  0.50069151  0.59251842     0.08400
C1061       C  0.54760329  0.99442207  0.61146853    -0.13700
C1062       C  0.54759520  0.99423572  0.64351801    -0.13700
C1063       C  0.50002417  0.00033575  0.65742393     0.08400
C1064       C  0.45245889  0.50666110  0.63847592    -0.13700
H1065       H  0.41512206  0.51171456  0.59254089     0.12400
H1066       H  0.58495797  0.98964659  0.60154706     0.12400
H1067       H  0.58494227  0.98935003  0.65740252     0.12400
H1068       H  0.41510646  0.51141809  0.64839610     0.12400
C1069       C  0.04846650  0.49331954  0.89397535    -0.13700
C1070       C  0.00092901  0.99933142  0.90789331     0.08400
C1071       C  0.95337187  0.00543278  0.88895405    -0.13700
C1072       C  0.95334331  0.00559676  0.85690162    -0.13700
C1073       C  0.00087175  0.49964308  0.84298545     0.08400
C1074       C  0.04843802  0.49348189  0.86192231    -0.13700
H1075       H  0.08580507  0.48858861  0.90785403     0.12400
H1076       H  0.91604630  0.01009404  0.89888552     0.12400
H1077       H  0.91600098  0.01035262  0.84302450     0.12400
H1078       H  0.08575977  0.48884605  0.85199198     0.12400
C1079       C  0.95321601  0.50654892  0.60693040    -0.13700
C1080       C  0.00076445  0.50055028  0.59302050     0.08400
C1081       C  0.04831937  0.99440061  0.61196746    -0.13700
C1082       C  0.04833197  0.99418568  0.64401739    -0.13700
C1083       C  0.00079013  0.00013457  0.65792463     0.08400
C1084       C  0.95322846  0.50633537  0.63898052    -0.13700
H1085       H  0.91588044  0.51131250  0.59304571     0.12400
H1086       H  0.08565222  0.98974420  0.60204542     0.12400
H1087       H  0.08567050  0.98940078  0.65790136     0.12400
H1088       H  0.91589901  0.51096977  0.64890182     0.12400
C1089       C  0.49908314  0.62578389  0.75568168    -0.13600
C1090       C  0.49679451  0.59702233  0.75448582    -0.15200
C1091       C  0.50336035  0.90323369  0.74549477    -0.13600
C1092       C  0.50128721  0.87442722  0.74433540    -0.15200
C1093       C  0.49665417  0.59702135  0.50378928    -0.13600
C1094       C  0.49896937  0.62576936  0.50495007    -0.15200
C1095       C  0.50167221  0.87440480  0.99507624    -0.13600
C1096       C  0.50377222  0.90319897  0.99619948    -0.15200
C1097       C  0.55166736  0.74072757  0.86608280    -0.13700
C1098       C  0.50962376  0.73820860  0.84477355     0.08400
C1099       C  0.45813451  0.74794486  0.85414040    -0.13700
C1100       C  0.44890247  0.75988811  0.88417872    -0.13700
C1101       C  0.49094996  0.76239567  0.90548950     0.08400
C1102       C  0.54243570  0.75267110  0.89611851    -0.13700
H1103       H  0.59179850  0.73351531  0.85957468     0.12400
H1104       H  0.42484928  0.74647130  0.83823864     0.12400
H1105       H  0.40877527  0.76709248  0.89069269     0.12400
H1106       H  0.57572599  0.75413510  0.91202052     0.12400
C1107       C  0.54248488  0.75274014  0.64578847    -0.13700
C1108       C  0.49113501  0.76179307  0.65532919     0.08400
C1109       C  0.44926224  0.75856609  0.63420161    -0.13700
C1110       C  0.45851686  0.74662018  0.60416814    -0.13700
C1111       C  0.50985784  0.73760137  0.59461721     0.08400
C1112       C  0.55174042  0.74079188  0.61575412    -0.13700
H1113       H  0.57563947  0.75478525  0.66154151     0.12400
H1114       H  0.40924768  0.76521776  0.64085235     0.12400
H1115       H  0.42535579  0.74459389  0.58841146     0.12400
H1116       H  0.59174927  0.73415835  0.60909613     0.12400
C1117       C  0.99728642  0.59681192  0.75496150    -0.13600
C1118       C  0.99937223  0.62561668  0.75611987    -0.15200
C1119       C  0.00424409  0.90294519  0.74586660    -0.13600
C1120       C  0.00197531  0.87417705  0.74465733    -0.15200
C1121       C  0.75594236  0.77842396  0.73640870    -0.13700
C1122       C  0.80131224  0.75374977  0.74806284     0.08400
C1123       C  0.79517903  0.72536107  0.76192458    -0.13700
C1124       C  0.74491781  0.72173206  0.76407222    -0.13700
C1125       C  0.69954777  0.74639690  0.75240444     0.08400
C1126       C  0.70567800  0.77479499  0.73855670    -0.13700
H1127       H  0.75917079  0.80064129  0.72558331     0.12400
H1128       H  0.82921508  0.70590711  0.77116363     0.12400
H1129       H  0.74169461  0.69951192  0.77489514     0.12400
H1130       H  0.67164004  0.79424556  0.72931482     0.12400
C1131       C  0.24515026  0.72151904  0.76400326    -0.13700
C1132       C  0.19968073  0.74617379  0.75245636     0.08400
C1133       C  0.20562113  0.77461507  0.73858396    -0.13700
C1134       C  0.25579970  0.77831538  0.73631970    -0.13700
C1135       C  0.30126930  0.75366812  0.74787509     0.08400
C1136       C  0.29533302  0.72521985  0.76173904    -0.13700
H1137       H  0.24206180  0.69926404  0.77482699     0.12400
H1138       H  0.17149516  0.79405617  0.72942305     0.12400
H1139       H  0.25888263  0.80057172  0.72549584     0.12400
H1140       H  0.32946231  0.70578067  0.77089929     0.12400
C1141       C  0.99699602  0.59694100  0.50412500    -0.13600
C1142       C  0.99909283  0.62573589  0.50522564    -0.15200
C1143       C  0.00225204  0.87429407  0.99549448    -0.13600
C1144       C  0.00456514  0.90304270  0.99666985    -0.15200
C1145       C  0.79519486  0.72575616  0.51240731    -0.13700
C1146       C  0.80132950  0.75383585  0.99801967     0.08400
C1147       C  0.75598755  0.77815143  0.98582298    -0.13700
C1148       C  0.70574656  0.77447874  0.98796556    -0.13700
C1149       C  0.69961521  0.74639663  0.50235287     0.08400
C1150       C  0.74495800  0.72208431  0.51455064    -0.13700
H1151       H  0.82921002  0.70659629  0.52209238     0.12400
H1152       H  0.75922403  0.80010814  0.97456102     0.12400
H1153       H  0.67172862  0.79363599  0.97827966     0.12400
H1154       H  0.74172753  0.70012510  0.52581098     0.12400
C1155       C  0.24515160  0.72162577  0.51404213    -0.13700
C1156       C  0.19970934  0.74623661  0.50239523     0.08400
C1157       C  0.20569121  0.77462078  0.98844665    -0.13700
C1158       C  0.25588569  0.77830582  0.98620360    -0.13700
C1159       C  0.30132782  0.75370479  0.99786429     0.08400
C1160       C  0.29534926  0.72531151  0.51179987    -0.13700
H1161       H  0.24202926  0.69942119  0.52493747     0.12400
H1162       H  0.17158791  0.79402114  0.97919995     0.12400
H1163       H  0.25900317  0.80051177  0.97530847     0.12400
H1164       H  0.32945483  0.70591307  0.52104692     0.12400
C1165       C  0.94921937  0.75921693  0.88467007    -0.13700
C1166       C  0.99109173  0.76252501  0.90575923     0.08400
C1167       C  0.04239836  0.75360128  0.89616399    -0.13700
C1168       C  0.05162979  0.74162865  0.86613508    -0.13700
C1169       C  0.00976871  0.73827992  0.84505631     0.08400
C1170       C  0.95845192  0.74724214  0.85464003    -0.13700
H1171       H  0.90923848  0.76577269  0.89136415     0.12400
H1172       H  0.07555049  0.75572584  0.91188144     0.12400
H1173       H  0.09161646  0.73505556  0.85944829     0.12400
H1174       H  0.92530642  0.74509996  0.83892568     0.12400
C1175       C  0.95865791  0.74679631  0.60436959    -0.13700
C1176       C  0.01003159  0.73762432  0.59485265     0.08400
C1177       C  0.05196029  0.74064184  0.61603051    -0.13700
C1178       C  0.04272093  0.75254805  0.64607862    -0.13700
C1179       C  0.99134113  0.76173748  0.65558936     0.08400
C1180       C  0.94941915  0.75870184  0.63441463    -0.13700
H1181       H  0.92545793  0.74491454  0.58857840     0.12400
H1182       H  0.09199373  0.73388723  0.60939920     0.12400
H1183       H  0.07591326  0.75444630  0.66186831     0.12400
H1184       H  0.90937980  0.76546997  0.64103779     0.12400
loop_ 
_geom_bond_atom_site_label_1 
_geom_bond_atom_site_label_2 
_geom_bond_distance 
_geom_bond_site_symmetry_2 
_ccdc_geom_bond_type 
O1           Ni7   1.924       .  S
O1           C22   1.271       .  A
O2          Ni25   1.904       .  S
O2          C307   1.269   1_554  A
O3           H26   0.966       .  S
O3          Ni19   1.918       .  S
O3         Ni303   1.920       .  S
O3         Ni321   1.907   1_455  S
C4           O21   1.265   1_655  A
C4           O13   1.270       .  A
C4          C255   1.433   1_655  S
O5          Ni24   1.924       .  S
O5           C11   1.272       .  A
O6          Ni24   1.899       .  S
O6            C8   1.270       .  A
Ni7          O10   1.934       .  S
Ni7          O12   1.899       .  S
Ni7         O299   1.920   1_554  S
C8           O18   1.278   1_655  A
C8          C278   1.477       .  S
O9          Ni25   1.904   1_556  S
O9           C15   1.265   1_656  A
O10          C15   1.270       .  A
C11         O298   1.269       .  A
C11         C258   1.483       .  S
O12          C14   1.271       .  A
O13         Ni24   1.934       .  S
C14          O20   1.278   1_455  A
C14         C288   1.477       .  S
C15         C254   1.433   1_455  S
H16          O17   0.966       .  S
O17         Ni25   1.918       .  S
O17        Ni315   1.907   1_655  S
O17        Ni320   1.920   1_554  S
O18         Ni19   1.941       .  S
Ni19         O23   1.903       .  S
Ni19         O21   1.903       .  S
Ni19        O313   1.907   1_455  S
O20         Ni25   1.941       .  S
C22         O319   1.268   1_554  A
C22         C268   1.482       .  S
O23         C318   1.268       .  A
Ni24        O313   1.920       .  S
Ni25        O299   1.907   1_654  S
O27         Ni33   1.924       .  S
O27          C48   1.272       .  A
O28         Ni51   1.904       .  S
O28          C37   1.269       .  A
O29          H52   0.966       .  S
O29         Ni33   1.920       .  S
O29         Ni51   1.907   1_455  S
O29         Ni45   1.918       .  S
C30          O47   1.265   1_655  A
C30          O39   1.270       .  A
C30         C232   1.433   1_655  S
O31         Ni50   1.923       .  S
O31          C37   1.272       .  A
O32         Ni50   1.899       .  S
O32          C34   1.271       .  A
Ni33         O36   1.934       .  S
Ni33         O38   1.899       .  S
C34          O44   1.278   1_655  A
C34         C291   1.478       .  S
O35         Ni51   1.904       .  S
O35          C41   1.265   1_655  A
O36          C41   1.270       .  A
C37         C234   1.483       .  S
O38          C40   1.271       .  A
O39         Ni50   1.934       .  S
C40          O46   1.278   1_455  A
C40         C281   1.477       .  S
C41         C230   1.433   1_455  S
H42          O43   0.966       .  S
O43         Ni51   1.918       .  S
O43         Ni45   1.907   1_655  S
O43         Ni50   1.920       .  S
O44         Ni45   1.942       .  S
Ni45         O49   1.903       .  S
Ni45         O47   1.904       .  S
O46         Ni51   1.942       .  S
C48          O49   1.268       .  A
C48         C244   1.482       .  S
O53         Ni59   1.924       .  S
O53          C74   1.272       .  A
O54         Ni77   1.903   1_554  S
O54         C359   1.268   1_554  A
O55          H78   0.966       .  S
O55         Ni71   1.918       .  S
O55        Ni355   1.920       .  S
O55        Ni373   1.907       .  S
C56          O73   1.265       .  A
C56          O65   1.270       .  A
C56         C207   1.433       .  S
O57         Ni76   1.923       .  S
O57          C63   1.271       .  A
O58         Ni76   1.899       .  S
O58          C60   1.271       .  A
Ni59         O62   1.934       .  S
Ni59         O64   1.899       .  S
Ni59        O351   1.920   1_554  S
C60          O70   1.278       .  A
C60         C213   1.477       .  S
O61         Ni77   1.903       .  S
O61          C67   1.265   1_556  A
O62          C67   1.270       .  A
C63         O350   1.268       .  A
C63         C271   1.482       .  S
O64          C66   1.270       .  A
O65         Ni76   1.934       .  S
C66          O72   1.278       .  A
C66         C223   1.477       .  S
C67         C206   1.433       .  S
H68          O69   0.966       .  S
O69         Ni77   1.918   1_554  S
O69        Ni367   1.907       .  S
O69        Ni372   1.920   1_554  S
O70         Ni71   1.941       .  S
Ni71         O75   1.904       .  S
Ni71         O73   1.904       .  S
Ni71        O365   1.907       .  S
O72         Ni77   1.941   1_554  S
C74         O371   1.269   1_554  A
C74         C261   1.483       .  S
O75         C370   1.269       .  A
Ni76        O365   1.920       .  S
Ni77        O351   1.907       .  S
O79         Ni85   1.923       .  S
O79         C100   1.271       .  A
O80        Ni103   1.903       .  S
O80          C89   1.268       .  A
O81         H104   0.966       .  S
O81         Ni85   1.920       .  S
O81        Ni103   1.907       .  S
O81         Ni97   1.918       .  S
C82          O99   1.265       .  A
C82          O91   1.270       .  A
C82         C204   1.433       .  S
O83        Ni102   1.924       .  S
O83          C89   1.272       .  A
O84        Ni102   1.899       .  S
O84          C86   1.271       .  A
Ni85         O88   1.934       .  S
Ni85         O90   1.899       .  S
C86          O96   1.278       .  A
C86         C220   1.477       .  S
O87        Ni103   1.904       .  S
O87          C93   1.265       .  A
O88          C93   1.270       .  A
C89         C247   1.482       .  S
O90          C92   1.270       .  A
O91        Ni102   1.934       .  S
C92          O98   1.278       .  A
C92         C210   1.477       .  S
C93         C201   1.433       .  S
H94          O95   0.967       .  S
O95        Ni103   1.918       .  S
O95         Ni97   1.907       .  S
O95        Ni102   1.920       .  S
O96         Ni97   1.942       .  S
Ni97        O101   1.904       .  S
Ni97         O99   1.904       .  S
O98        Ni103   1.941       .  S
C100        O101   1.269       .  A
C100        C237   1.483       .  S
O105       Ni113   1.917       .  S
O105        C115   1.279       .  A
O106       Ni705   1.916   1_545  S
O106        C412   1.280   1_455  A
O107       Ni409   1.921       .  S
O107        C709   1.283       .  A
O108       Ni113   1.921       .  S
O108        C118   1.283       .  A
O109       Ni410   1.921       .  S
O109        C710   1.283   1_645  A
O110       Ni114   1.921   1_554  S
O110        C117   1.283   1_655  A
O111       Ni114   1.917   1_554  S
O111        C116   1.279       .  A
O112       Ni706   1.915       .  S
O112        C411   1.279   1_655  A
Ni113       O698   1.916       .  S
Ni113       O403   1.921       .  S
Ni113     Ni1002   2.390   1_455  S
Ni114       O405   1.921       .  S
Ni114       O704   1.915   1_545  S
Ni114     Ni1001   2.390   1_646  S
C115        O408   1.279   1_455  A
C115        C256   1.433       .  S
C116        O402   1.280   1_655  A
C116        C253   1.433       .  S
C117        O699   1.283   1_545  A
C117        C192   1.486       .  S
C118        O701   1.283   1_455  A
C118        C182   1.485       .  S
O119       Ni127   1.921       .  S
O119        C129   1.283   1_645  A
O120       Ni719   1.921       .  S
O120        C130   1.283   1_655  A
O121       Ni719   1.916       .  S
O121        C131   1.279   1_655  A
O122       Ni127   1.917       .  S
O122        C132   1.279       .  A
O123       Ni720   1.916   1_545  S
O123        C132   1.280   1_455  A
O124       Ni128   1.917       .  S
O124        C131   1.279       .  A
O125       Ni128   1.921       .  S
O125        C130   1.283       .  A
O126       Ni128   1.921       .  S
O126        C721   1.283       .  A
Ni127       O712   1.921       .  S
Ni127       O713   1.916   1_545  S
Ni127      Ni720   2.390   1_645  S
Ni128       O715   1.916       .  S
Ni128      Ni719   2.390   1_455  S
C129        O718   1.283       .  A
C129        C185   1.486       .  S
C130        C195   1.486       .  S
C131        C231   1.434       .  S
C132        C229   1.434       .  S
O133       Ni437   1.921       .  S
O133        C735   1.283   1_545  A
O134       Ni141   1.921   1_554  S
O134        C144   1.283       .  A
O135       Ni141   1.917       .  S
O135        C145   1.279   1_556  A
O136       Ni733   1.916       .  S
O136        C442   1.280       .  A
O137       Ni142   1.916       .  S
O137        C146   1.279       .  A
O138      Ni1030   1.915   1_545  S
O138        C145   1.279       .  A
O139      Ni1030   1.921       .  S
O139        C144   1.283   1_565  A
O140       Ni142   1.921       .  S
O140        C143   1.283       .  A
Ni141       O429   1.921       .  S
Ni141       O728   1.916   1_545  S
Ni141     Ni1030   2.390   1_546  S
Ni142      O1026   1.915       .  S
Ni142      O1027   1.921       .  S
Ni142     Ni1029   2.390       .  S
C143        O725   1.283       .  A
C143        C162   1.486       .  S
C144        C172   1.486       .  S
C145        C205   1.433       .  S
C146        O432   1.280       .  A
C146        C208   1.433       .  S
O147       Ni155   1.921       .  S
O147        C749   1.283       .  A
O148       Ni155   1.921       .  S
O148        C158   1.283       .  A
O149       Ni155   1.917       .  S
O149        C159   1.279       .  A
O150       Ni747   1.916       .  S
O150        C160   1.280       .  A
O151       Ni156   1.917       .  S
O151        C160   1.279       .  A
O152       Ni748   1.916   1_545  S
O152        C159   1.279       .  A
O153       Ni156   1.921       .  S
O153        C750   1.283       .  A
O154       Ni156   1.921       .  S
O154        C157   1.283       .  A
Ni155       O742   1.916   1_545  S
Ni155      Ni748   2.390   1_545  S
Ni156       O744   1.916       .  S
Ni156      Ni747   2.390       .  S
C157        O739   1.283       .  A
C157        C175   1.486       .  S
C158        O745   1.283   1_545  A
C158        C165   1.486   1_545  S
C159        C202   1.433       .  S
C160        C203   1.434       .  S
C161        C166   1.400       .  A
C161        C754   1.406       .  A
C161        H167   1.083       .  S
C162        C163   1.406       .  A
C162        C753   1.406       .  A
C163        C164   1.400       .  A
C163        H168   1.083       .  S
C164        C757   1.406       .  A
C164        H169   1.083       .  S
C165        C166   1.406       .  A
C165        C756   1.406   1_565  A
C166        H170   1.083       .  S
C171        C172   1.406       .  A
C171        C176   1.400       .  A
C171        H177   1.083       .  S
C172        C765   1.406   1_545  A
C173        C174   1.400       .  A
C173        C764   1.406       .  A
C173        H178   1.083       .  S
C174        C175   1.406       .  A
C174        H179   1.083       .  S
C175        C768   1.406       .  A
C176        C767   1.406       .  A
C176        H180   1.083       .  S
C181        C186   1.400       .  A
C181        C774   1.406       .  A
C181        H187   1.083       .  S
C182        C183   1.406   1_455  A
C182        C773   1.406       .  A
C183        C184   1.400       .  A
C183        H188   1.083       .  S
C184        C777   1.406   1_655  A
C184        H189   1.083       .  S
C185        C186   1.406       .  A
C185        C776   1.406   1_465  A
C186        H190   1.083       .  S
C191        C192   1.406   1_655  A
C191        C196   1.400       .  A
C191        H197   1.083       .  S
C192        C785   1.406   1_545  A
C193        C194   1.400       .  A
C193        C784   1.406       .  A
C193        H198   1.083       .  S
C194        C195   1.406       .  A
C194        H199   1.083       .  S
C195        C788   1.406   1_455  A
C196        C787   1.406   1_655  A
C196        H200   1.083       .  S
C201        C202   1.205       .  T
C203        C204   1.205       .  T
C205        C206   1.205       .  T
C207        C208   1.205       .  T
C209        C210   1.406       .  A
C209        C214   1.395       .  A
C209        H215   1.083       .  S
C210        C211   1.405       .  A
C211        C212   1.395       .  A
C211        H216   1.083       .  S
C212        C213   1.406       .  A
C212        H217   1.083       .  S
C213        C214   1.405       .  A
C214        H218   1.083       .  S
C219        C220   1.405       .  A
C219        C224   1.395       .  A
C219        H225   1.083       .  S
C220        C221   1.406       .  A
C221        C222   1.395       .  A
C221        H226   1.083       .  S
C222        C223   1.405       .  A
C222        H227   1.083       .  S
C223        C224   1.406       .  A
C224        H228   1.083       .  S
C229        C230   1.205       .  T
C231        C232   1.205       .  T
C233        C234   1.408       .  A
C233        C238   1.397       .  A
C233        H239   1.083       .  S
C234        C235   1.405       .  A
C235        C236   1.397       .  A
C235        H240   1.083       .  S
C236        C237   1.408       .  A
C236        H241   1.083       .  S
C237        C238   1.405       .  A
C238        H242   1.083       .  S
C243        C244   1.407       .  A
C243        C248   1.397       .  A
C243        H249   1.083       .  S
C244        C245   1.405       .  A
C245        C246   1.397       .  A
C245        H250   1.083       .  S
C246        C247   1.407       .  A
C246        H251   1.083       .  S
C247        C248   1.405       .  A
C248        H252   1.083       .  S
C253        C254   1.205       .  T
C255        C256   1.205       .  T
C257        C262   1.397       .  A
C257        C554   1.405   1_554  A
C257        H263   1.083       .  S
C258        C259   1.408       .  A
C258        C553   1.405       .  A
C259        C260   1.397       .  A
C259        H264   1.083       .  S
C260        C557   1.405       .  A
C260        H265   1.083       .  S
C261        C262   1.408       .  A
C261        C556   1.405   1_554  A
C262        H266   1.083       .  S
C267        C268   1.408       .  A
C267        C272   1.397       .  A
C267        H273   1.083       .  S
C268        C565   1.405   1_554  A
C269        C270   1.397       .  A
C269        C564   1.405       .  A
C269        H274   1.083       .  S
C270        C271   1.408       .  A
C270        H275   1.083       .  S
C271        C568   1.405       .  A
C272        C567   1.405   1_554  A
C272        H276   1.083       .  S
C277        C278   1.406       .  A
C277        C282   1.395       .  A
C277        H283   1.083       .  S
C278        C279   1.405   1_655  A
C279        C280   1.395       .  A
C279        H284   1.083       .  S
C280        C281   1.406       .  A
C280        H285   1.083       .  S
C281        C282   1.405   1_455  A
C282        H286   1.083       .  S
C287        C288   1.405   1_655  A
C287        C292   1.395       .  A
C287        H293   1.083       .  S
C288        C289   1.406       .  A
C289        C290   1.395       .  A
C289        H294   1.083       .  S
C290        C291   1.405   1_455  A
C290        H295   1.083       .  S
C291        C292   1.406       .  A
C292        H296   1.083       .  S
O297       Ni303   1.924       .  S
O297        C318   1.271       .  A
O298       Ni321   1.904       .  S
O299        H322   0.966       .  S
O299       Ni315   1.918   1_556  S
C300        O317   1.265   1_656  A
C300        O309   1.270       .  A
C300        C551   1.433   1_655  S
O301       Ni320   1.924       .  S
O301        C307   1.272       .  A
O302       Ni320   1.899       .  S
O302        C304   1.270       .  A
Ni303       O306   1.934       .  S
Ni303       O308   1.899       .  S
C304        O314   1.278   1_655  A
C304        C574   1.477       .  S
O305       Ni321   1.904       .  S
O305        C311   1.265   1_655  A
O306        C311   1.270       .  A
C307        C554   1.483       .  S
O308        C310   1.271       .  A
O309       Ni320   1.934       .  S
C310        O316   1.278   1_455  A
C310        C584   1.477       .  S
C311        C550   1.433   1_455  S
H312        O313   0.966       .  S
O313       Ni321   1.918       .  S
O314       Ni315   1.941   1_556  S
Ni315       O319   1.903   1_554  S
Ni315       O317   1.903       .  S
O316       Ni321   1.941       .  S
C318        C564   1.482       .  S
O323       Ni329   1.924       .  S
O323        C344   1.272       .  A
O324       Ni347   1.904       .  S
O324        C333   1.269       .  A
O325        H348   0.966       .  S
O325       Ni329   1.920       .  S
O325       Ni347   1.907   1_455  S
O325       Ni341   1.918       .  S
C326        O343   1.265   1_655  A
C326        O335   1.270       .  A
C326        C528   1.433   1_655  S
O327       Ni346   1.923       .  S
O327        C333   1.272       .  A
O328       Ni346   1.899       .  S
O328        C330   1.271       .  A
Ni329       O332   1.934       .  S
Ni329       O334   1.899       .  S
C330        O340   1.278   1_655  A
C330        C587   1.478       .  S
O331       Ni347   1.904       .  S
O331        C337   1.265   1_655  A
O332        C337   1.270       .  A
C333        C530   1.483       .  S
O334        C336   1.271       .  A
O335       Ni346   1.934       .  S
C336        O342   1.278   1_455  A
C336        C577   1.477       .  S
C337        C526   1.433   1_455  S
H338        O339   0.966       .  S
O339       Ni347   1.918       .  S
O339       Ni341   1.907   1_655  S
O339       Ni346   1.920       .  S
O340       Ni341   1.942       .  S
Ni341       O345   1.903       .  S
Ni341       O343   1.904       .  S
O342       Ni347   1.942       .  S
C344        O345   1.268       .  A
C344        C540   1.482       .  S
O349       Ni355   1.924       .  S
O349        C370   1.272       .  A
O350       Ni373   1.903       .  S
O351        H374   0.966       .  S
O351       Ni367   1.918   1_556  S
C352        O369   1.265   1_556  A
C352        O361   1.270       .  A
C352        C503   1.433       .  S
O353       Ni372   1.923       .  S
O353        C359   1.271       .  A
O354       Ni372   1.899       .  S
O354        C356   1.271       .  A
Ni355       O358   1.934       .  S
Ni355       O360   1.899       .  S
C356        O366   1.278       .  A
C356        C509   1.477       .  S
O357       Ni373   1.903       .  S
O357        C363   1.265       .  A
O358        C363   1.270       .  A
C359        C567   1.482       .  S
O360        C362   1.270       .  A
O361       Ni372   1.934       .  S
C362        O368   1.278       .  A
C362        C519   1.477       .  S
C363        C502   1.433       .  S
H364        O365   0.966       .  S
O365       Ni373   1.918       .  S
O366       Ni367   1.941   1_556  S
Ni367       O371   1.904   1_554  S
Ni367       O369   1.904       .  S
O368       Ni373   1.941       .  S
C370        C557   1.483       .  S
O375       Ni381   1.923       .  S
O375        C396   1.271       .  A
O376       Ni399   1.903       .  S
O376        C385   1.268       .  A
O377        H400   0.966       .  S
O377       Ni381   1.920       .  S
O377       Ni399   1.907       .  S
O377       Ni393   1.918       .  S
C378        O395   1.265       .  A
C378        O387   1.270       .  A
C378        C500   1.433       .  S
O379       Ni398   1.924       .  S
O379        C385   1.272       .  A
O380       Ni398   1.899       .  S
O380        C382   1.271       .  A
Ni381       O384   1.934       .  S
Ni381       O386   1.899       .  S
C382        O392   1.278       .  A
C382        C516   1.477       .  S
O383       Ni399   1.904       .  S
O383        C389   1.265       .  A
O384        C389   1.270       .  A
C385        C543   1.482       .  S
O386        C388   1.270       .  A
O387       Ni398   1.934       .  S
C388        O394   1.278       .  A
C388        C506   1.477       .  S
C389        C497   1.433       .  S
H390        O391   0.967       .  S
O391       Ni399   1.918       .  S
O391       Ni393   1.907       .  S
O391       Ni398   1.920       .  S
O392       Ni393   1.942       .  S
Ni393       O397   1.904       .  S
Ni393       O395   1.904       .  S
O394       Ni399   1.941       .  S
C396        O397   1.269       .  A
C396        C533   1.483       .  S
O401       Ni409   1.917       .  S
O401        C411   1.279   1_554  A
O402      Ni1001   1.916   1_545  S
O403       C1005   1.283       .  A
O404       Ni409   1.921   1_556  S
O404        C414   1.283       .  A
O405       C1006   1.283   1_645  A
O406       Ni410   1.921       .  S
O406        C413   1.283   1_655  A
O407       Ni410   1.917       .  S
O407        C412   1.279       .  A
O408      Ni1002   1.915       .  S
Ni409       O994   1.916       .  S
Ni409      Ni706   2.390   1_454  S
Ni410      O1000   1.915   1_545  S
Ni410      Ni705   2.390   1_645  S
C411        C552   1.433       .  S
C412        C549   1.433       .  S
C413        O995   1.283   1_545  A
C413        C488   1.486       .  S
C414        O997   1.283   1_455  A
C414        C478   1.485       .  S
O415       Ni423   1.921       .  S
O415        C425   1.283   1_645  A
O416      Ni1015   1.921       .  S
O416        C426   1.283   1_655  A
O417      Ni1015   1.916       .  S
O417        C427   1.279   1_655  A
O418       Ni423   1.917       .  S
O418        C428   1.279       .  A
O419      Ni1016   1.916   1_545  S
O419        C428   1.280   1_455  A
O420       Ni424   1.917       .  S
O420        C427   1.279       .  A
O421       Ni424   1.921       .  S
O421        C426   1.283       .  A
O422       Ni424   1.921       .  S
O422       C1017   1.283       .  A
Ni423      O1008   1.921       .  S
Ni423      O1009   1.916   1_545  S
Ni423     Ni1016   2.390   1_645  S
Ni424      O1011   1.916       .  S
Ni424     Ni1015   2.390   1_455  S
C425       O1014   1.283       .  A
C425        C481   1.486       .  S
C426        C491   1.486       .  S
C427        C527   1.434       .  S
C428        C525   1.434       .  S
O429       C1031   1.283   1_545  A
O430       Ni437   1.921       .  S
O430        C440   1.283       .  A
O431       Ni437   1.917       .  S
O431        C441   1.279       .  A
O432      Ni1029   1.916       .  S
O433       Ni438   1.916       .  S
O433        C442   1.279   1_554  A
O434       Ni734   1.915   1_545  S
O434        C441   1.279       .  A
O435       Ni734   1.921       .  S
O435        C440   1.283   1_565  A
O436       Ni438   1.921   1_556  S
O436        C439   1.283       .  A
Ni437      O1024   1.916   1_545  S
Ni437      Ni734   2.390   1_545  S
Ni438       O730   1.915       .  S
Ni438       O731   1.921       .  S
Ni438      Ni733   2.390   1_554  S
C439       O1021   1.283       .  A
C439        C458   1.486       .  S
C440        C468   1.486       .  S
C441        C501   1.433       .  S
C442        C504   1.433       .  S
O443       Ni451   1.921       .  S
O443       C1045   1.283       .  A
O444       Ni451   1.921       .  S
O444        C454   1.283       .  A
O445       Ni451   1.917       .  S
O445        C455   1.279       .  A
O446      Ni1043   1.916       .  S
O446        C456   1.280       .  A
O447       Ni452   1.917       .  S
O447        C456   1.279       .  A
O448      Ni1044   1.916   1_545  S
O448        C455   1.279       .  A
O449       Ni452   1.921       .  S
O449       C1046   1.283       .  A
O450       Ni452   1.921       .  S
O450        C453   1.283       .  A
Ni451      O1038   1.916   1_545  S
Ni451     Ni1044   2.390   1_545  S
Ni452      O1040   1.916       .  S
Ni452     Ni1043   2.390       .  S
C453       O1035   1.283       .  A
C453        C471   1.486       .  S
C454       O1041   1.283   1_545  A
C454        C461   1.486   1_545  S
C455        C498   1.433       .  S
C456        C499   1.434       .  S
C457       C1050   1.406       .  A
C457        C462   1.400       .  A
C457        H463   1.083       .  S
C458       C1049   1.406       .  A
C458        C459   1.406       .  A
C459        C460   1.400       .  A
C459        H464   1.083       .  S
C460       C1053   1.406       .  A
C460        H465   1.083       .  S
C461       C1052   1.406   1_565  A
C461        C462   1.406       .  A
C462        H466   1.083       .  S
C467        C468   1.406       .  A
C467        C472   1.400       .  A
C467        H473   1.083       .  S
C468       C1061   1.406   1_545  A
C469       C1060   1.406       .  A
C469        C470   1.400       .  A
C469        H474   1.083       .  S
C470        C471   1.406       .  A
C470        H475   1.083       .  S
C471       C1064   1.406       .  A
C472       C1063   1.406       .  A
C472        H476   1.083       .  S
C477       C1070   1.406       .  A
C477        C482   1.400       .  A
C477        H483   1.083       .  S
C478       C1069   1.406       .  A
C478        C479   1.406   1_455  A
C479        C480   1.400       .  A
C479        H484   1.083       .  S
C480       C1073   1.406   1_655  A
C480        H485   1.083       .  S
C481       C1072   1.406   1_465  A
C481        C482   1.406       .  A
C482        H486   1.083       .  S
C487        C488   1.406   1_655  A
C487        C492   1.400       .  A
C487        H493   1.083       .  S
C488       C1081   1.406   1_545  A
C489       C1080   1.406       .  A
C489        C490   1.400       .  A
C489        H494   1.083       .  S
C490        C491   1.406       .  A
C490        H495   1.083       .  S
C491       C1084   1.406   1_455  A
C492       C1083   1.406   1_655  A
C492        H496   1.083       .  S
C497        C498   1.205       .  T
C499        C500   1.205       .  T
C501        C502   1.205       .  T
C503        C504   1.205       .  T
C505        C506   1.406       .  A
C505        C510   1.395       .  A
C505        H511   1.083       .  S
C506        C507   1.405       .  A
C507        C508   1.395       .  A
C507        H512   1.083       .  S
C508        C509   1.406       .  A
C508        H513   1.083       .  S
C509        C510   1.405       .  A
C510        H514   1.083       .  S
C515        C516   1.405       .  A
C515        C520   1.395       .  A
C515        H521   1.083       .  S
C516        C517   1.406       .  A
C517        C518   1.395       .  A
C517        H522   1.083       .  S
C518        C519   1.405       .  A
C518        H523   1.083       .  S
C519        C520   1.406       .  A
C520        H524   1.083       .  S
C525        C526   1.205       .  T
C527        C528   1.205       .  T
C529        C530   1.408       .  A
C529        C534   1.397       .  A
C529        H535   1.083       .  S
C530        C531   1.405       .  A
C531        C532   1.397       .  A
C531        H536   1.083       .  S
C532        C533   1.408       .  A
C532        H537   1.083       .  S
C533        C534   1.405       .  A
C534        H538   1.083       .  S
C539        C540   1.407       .  A
C539        C544   1.397       .  A
C539        H545   1.083       .  S
C540        C541   1.405       .  A
C541        C542   1.397       .  A
C541        H546   1.083       .  S
C542        C543   1.407       .  A
C542        H547   1.083       .  S
C543        C544   1.405       .  A
C544        H548   1.083       .  S
C549        C550   1.205       .  T
C551        C552   1.205       .  T
C553        C558   1.397       .  A
C553        H559   1.083       .  S
C554        C555   1.408       .  A
C555        C556   1.397       .  A
C555        H560   1.083       .  S
C556        H561   1.083       .  S
C557        C558   1.408       .  A
C558        H562   1.083       .  S
C563        C564   1.408       .  A
C563        C568   1.397       .  A
C563        H569   1.083       .  S
C565        C566   1.397       .  A
C565        H570   1.083       .  S
C566        C567   1.408       .  A
C566        H571   1.083       .  S
C568        H572   1.083       .  S
C573        C574   1.406       .  A
C573        C578   1.395       .  A
C573        H579   1.083       .  S
C574        C575   1.405   1_655  A
C575        C576   1.395       .  A
C575        H580   1.083       .  S
C576        C577   1.406       .  A
C576        H581   1.083       .  S
C577        C578   1.405   1_455  A
C578        H582   1.083       .  S
C583        C584   1.405   1_655  A
C583        C588   1.395       .  A
C583        H589   1.083       .  S
C584        C585   1.406       .  A
C585        C586   1.395       .  A
C585        H590   1.083       .  S
C586        C587   1.405   1_455  A
C586        H591   1.083       .  S
C587        C588   1.406       .  A
C588        H592   1.083       .  S
O593       Ni599   1.924       .  S
O593        C614   1.271       .  A
O594       Ni617   1.904       .  S
O594        C899   1.269   1_554  A
O595        H618   0.966       .  S
O595       Ni895   1.920       .  S
O595       Ni913   1.907   1_455  S
O595       Ni611   1.918       .  S
C596        O613   1.265   1_655  A
C596        O605   1.270       .  A
C596        C847   1.433   1_655  S
O597       Ni616   1.924       .  S
O597        C603   1.272       .  A
O598       Ni616   1.899       .  S
O598        C600   1.270       .  A
Ni599       O602   1.934       .  S
Ni599       O604   1.899       .  S
Ni599       O891   1.920   1_554  S
C600        O610   1.278   1_655  A
C600        C870   1.477       .  S
O601       Ni617   1.904   1_556  S
O601        C607   1.265   1_656  A
O602        C607   1.270       .  A
C603        O890   1.269       .  A
C603        C850   1.483       .  S
O604        C606   1.271       .  A
O605       Ni616   1.934       .  S
C606        O612   1.278   1_455  A
C606        C880   1.477       .  S
C607        C846   1.433   1_455  S
H608        O609   0.966       .  S
O609       Ni617   1.918       .  S
O609       Ni907   1.907   1_655  S
O609       Ni912   1.920   1_554  S
O610       Ni611   1.941       .  S
Ni611       O615   1.903       .  S
Ni611       O613   1.903       .  S
Ni611       O905   1.907   1_455  S
O612       Ni617   1.941       .  S
C614        O911   1.268   1_554  A
C614        C860   1.482       .  S
O615        C910   1.268       .  A
Ni616       O905   1.920       .  S
Ni617       O891   1.907   1_654  S
O619       Ni625   1.924       .  S
O619        C640   1.272       .  A
O620       Ni643   1.904       .  S
O620        C629   1.269       .  A
O621        H644   0.966       .  S
O621       Ni625   1.920       .  S
O621       Ni643   1.907   1_455  S
O621       Ni637   1.918       .  S
C622        O639   1.265   1_655  A
C622        O631   1.270       .  A
C622        C824   1.433   1_655  S
O623       Ni642   1.923       .  S
O623        C629   1.272       .  A
O624       Ni642   1.899       .  S
O624        C626   1.271       .  A
Ni625       O628   1.934       .  S
Ni625       O630   1.899       .  S
C626        O636   1.278   1_655  A
C626        C883   1.478       .  S
O627       Ni643   1.904       .  S
O627        C633   1.265   1_655  A
O628        C633   1.270       .  A
C629        C826   1.483       .  S
O630        C632   1.271       .  A
O631       Ni642   1.934       .  S
C632        O638   1.278   1_455  A
C632        C873   1.477       .  S
C633        C822   1.433   1_455  S
H634        O635   0.966       .  S
O635       Ni643   1.918       .  S
O635       Ni637   1.907   1_655  S
O635       Ni642   1.920       .  S
O636       Ni637   1.942       .  S
Ni637       O641   1.903       .  S
Ni637       O639   1.904       .  S
O638       Ni643   1.942       .  S
C640        O641   1.268       .  A
C640        C836   1.482       .  S
O645       Ni651   1.924       .  S
O645        C666   1.272       .  A
O646       Ni669   1.903   1_554  S
O646        C951   1.268   1_554  A
O647        H670   0.966       .  S
O647       Ni947   1.920       .  S
O647       Ni965   1.907       .  S
O647       Ni663   1.918       .  S
C648        O665   1.265       .  A
C648        O657   1.270       .  A
C648        C799   1.433       .  S
O649       Ni668   1.923       .  S
O649        C655   1.271       .  A
O650       Ni668   1.899       .  S
O650        C652   1.271       .  A
Ni651       O654   1.934       .  S
Ni651       O656   1.899       .  S
Ni651       O943   1.920   1_554  S
C652        O662   1.278       .  A
C652        C805   1.477       .  S
O653       Ni669   1.903       .  S
O653        C659   1.265   1_556  A
O654        C659   1.270       .  A
C655        O942   1.268       .  A
C655        C863   1.482       .  S
O656        C658   1.270       .  A
O657       Ni668   1.934       .  S
C658        O664   1.278       .  A
C658        C815   1.477       .  S
C659        C798   1.433       .  S
H660        O661   0.966       .  S
O661       Ni669   1.918   1_554  S
O661       Ni959   1.907       .  S
O661       Ni964   1.920   1_554  S
O662       Ni663   1.941       .  S
Ni663       O667   1.904       .  S
Ni663       O665   1.904       .  S
Ni663       O957   1.907       .  S
O664       Ni669   1.941   1_554  S
C666        O963   1.269   1_554  A
C666        C853   1.483       .  S
O667        C962   1.269       .  A
Ni668       O957   1.920       .  S
Ni669       O943   1.907       .  S
O671       Ni677   1.923       .  S
O671        C692   1.271       .  A
O672       Ni695   1.903       .  S
O672        C681   1.268       .  A
O673        H696   0.966       .  S
O673       Ni677   1.920       .  S
O673       Ni695   1.907       .  S
O673       Ni689   1.918       .  S
C674        O691   1.265       .  A
C674        O683   1.270       .  A
C674        C796   1.433       .  S
O675       Ni694   1.924       .  S
O675        C681   1.272       .  A
O676       Ni694   1.899       .  S
O676        C678   1.271       .  A
Ni677       O680   1.934       .  S
Ni677       O682   1.899       .  S
C678        O688   1.278       .  A
C678        C812   1.477       .  S
O679       Ni695   1.904       .  S
O679        C685   1.265       .  A
O680        C685   1.270       .  A
C681        C839   1.482       .  S
O682        C684   1.270       .  A
O683       Ni694   1.934       .  S
C684        O690   1.278       .  A
C684        C802   1.477       .  S
C685        C793   1.433       .  S
H686        O687   0.967       .  S
O687       Ni695   1.918       .  S
O687       Ni689   1.907       .  S
O687       Ni694   1.920       .  S
O688       Ni689   1.942       .  S
Ni689       O693   1.904       .  S
Ni689       O691   1.904       .  S
O690       Ni695   1.941       .  S
C692        O693   1.269       .  A
C692        C829   1.483       .  S
O697       Ni705   1.917       .  S
O697        C707   1.279       .  A
O698       C1004   1.280   1_455  A
O699      Ni1001   1.921       .  S
O700       Ni705   1.921       .  S
O700        C710   1.283       .  A
O701      Ni1002   1.921       .  S
O702       Ni706   1.921   1_554  S
O702        C709   1.283   1_655  A
O703       Ni706   1.917   1_554  S
O703        C708   1.279       .  A
O704       C1003   1.279   1_655  A
Ni705       O995   1.921       .  S
Ni706       O997   1.921       .  S
C707       O1000   1.279   1_455  A
C707        C848   1.433       .  S
C708        O994   1.280   1_655  A
C708        C845   1.433       .  S
C709        C784   1.486       .  S
C710        C774   1.485       .  S
O711       Ni719   1.921       .  S
O711        C721   1.283   1_655  A
O712        C722   1.283   1_645  A
O713        C723   1.279   1_655  A
O714       Ni719   1.917       .  S
O714        C724   1.279       .  A
O715        C724   1.280   1_455  A
O716       Ni720   1.917       .  S
O716        C723   1.279       .  A
O717       Ni720   1.921       .  S
O717        C722   1.283       .  A
O718       Ni720   1.921       .  S
C721        C777   1.486       .  S
C722        C787   1.486   1_565  S
C723        C823   1.434       .  S
C724        C821   1.434       .  S
O725      Ni1029   1.921       .  S
O726       Ni733   1.921   1_554  S
O726        C736   1.283       .  A
O727       Ni733   1.917       .  S
O727        C737   1.279   1_556  A
O728       C1034   1.280       .  A
O729       Ni734   1.916       .  S
O729        C738   1.279       .  A
O730        C737   1.279       .  A
O731        C736   1.283       .  A
O732       Ni734   1.921       .  S
O732        C735   1.283       .  A
Ni733      O1021   1.921       .  S
C735        C754   1.486       .  S
C736        C764   1.486       .  S
C737        C797   1.433       .  S
C738       O1024   1.280       .  A
C738        C800   1.433       .  S
O739       Ni747   1.921       .  S
O740       Ni747   1.921       .  S
O740        C750   1.283       .  A
O741       Ni747   1.917       .  S
O741        C751   1.279       .  A
O742        C752   1.280       .  A
O743       Ni748   1.917       .  S
O743        C752   1.279       .  A
O744        C751   1.279       .  A
O745       Ni748   1.921       .  S
O746       Ni748   1.921       .  S
O746        C749   1.283   1_565  A
C749        C767   1.486       .  S
C750        C757   1.486       .  S
C751        C794   1.433       .  S
C752        C795   1.434       .  S
C753        C758   1.400       .  A
C753        H759   1.083       .  S
C754        C755   1.406   1_565  A
C755        C756   1.400       .  A
C755        H760   1.083       .  S
C756        H761   1.083       .  S
C757        C758   1.406       .  A
C758        H762   1.083       .  S
C763        C764   1.406       .  A
C763        C768   1.400       .  A
C763        H769   1.083       .  S
C765        C766   1.400       .  A
C765        H770   1.083       .  S
C766        C767   1.406   1_565  A
C766        H771   1.083       .  S
C768        H772   1.083       .  S
C773        C778   1.400       .  A
C773        H779   1.083       .  S
C774        C775   1.406   1_465  A
C775        C776   1.400       .  A
C775        H780   1.083       .  S
C776        H781   1.083       .  S
C777        C778   1.406       .  A
C778        H782   1.083       .  S
C783        C784   1.406   1_655  A
C783        C788   1.400       .  A
C783        H789   1.083       .  S
C785        C786   1.400       .  A
C785        H790   1.083       .  S
C786        C787   1.406   1_565  A
C786        H791   1.083       .  S
C788        H792   1.083       .  S
C793        C794   1.205       .  T
C795        C796   1.205       .  T
C797        C798   1.205       .  T
C799        C800   1.205       .  T
C801        C802   1.406       .  A
C801        C806   1.395       .  A
C801        H807   1.083       .  S
C802        C803   1.405       .  A
C803        C804   1.395       .  A
C803        H808   1.083       .  S
C804        C805   1.406       .  A
C804        H809   1.083       .  S
C805        C806   1.405       .  A
C806        H810   1.083       .  S
C811        C812   1.405       .  A
C811        C816   1.395       .  A
C811        H817   1.083       .  S
C812        C813   1.406       .  A
C813        C814   1.395       .  A
C813        H818   1.083       .  S
C814        C815   1.405       .  A
C814        H819   1.083       .  S
C815        C816   1.406       .  A
C816        H820   1.083       .  S
C821        C822   1.205       .  T
C823        C824   1.205       .  T
C825        C826   1.408       .  A
C825        C830   1.397       .  A
C825        H831   1.083       .  S
C826        C827   1.405       .  A
C827        C828   1.397       .  A
C827        H832   1.083       .  S
C828        C829   1.408       .  A
C828        H833   1.083       .  S
C829        C830   1.405       .  A
C830        H834   1.083       .  S
C835        C836   1.407       .  A
C835        C840   1.397       .  A
C835        H841   1.083       .  S
C836        C837   1.405       .  A
C837        C838   1.397       .  A
C837        H842   1.083       .  S
C838        C839   1.407       .  A
C838        H843   1.083       .  S
C839        C840   1.405       .  A
C840        H844   1.083       .  S
C845        C846   1.205       .  T
C847        C848   1.205       .  T
C849       C1146   1.405   1_554  A
C849        C854   1.397       .  A
C849        H855   1.083       .  S
C850       C1145   1.405       .  A
C850        C851   1.408       .  A
C851        C852   1.397       .  A
C851        H856   1.083       .  S
C852       C1149   1.405       .  A
C852        H857   1.083       .  S
C853       C1148   1.405   1_554  A
C853        C854   1.408       .  A
C854        H858   1.083       .  S
C859        C860   1.408       .  A
C859        C864   1.397       .  A
C859        H865   1.083       .  S
C860       C1157   1.405   1_554  A
C861       C1156   1.405       .  A
C861        C862   1.397       .  A
C861        H866   1.083       .  S
C862        C863   1.408       .  A
C862        H867   1.083       .  S
C863       C1160   1.405       .  A
C864       C1159   1.405   1_554  A
C864        H868   1.083       .  S
C869        C870   1.406       .  A
C869        C874   1.395       .  A
C869        H875   1.083       .  S
C870        C871   1.405   1_655  A
C871        C872   1.395       .  A
C871        H876   1.083       .  S
C872        C873   1.406       .  A
C872        H877   1.083       .  S
C873        C874   1.405   1_455  A
C874        H878   1.083       .  S
C879        C880   1.405   1_655  A
C879        C884   1.395       .  A
C879        H885   1.083       .  S
C880        C881   1.406       .  A
C881        C882   1.395       .  A
C881        H886   1.083       .  S
C882        C883   1.405   1_455  A
C882        H887   1.083       .  S
C883        C884   1.406       .  A
C884        H888   1.083       .  S
O889       Ni895   1.924       .  S
O889        C910   1.271       .  A
O890       Ni913   1.904       .  S
O891        H914   0.966       .  S
O891       Ni907   1.918   1_556  S
C892        O909   1.265   1_656  A
C892        O901   1.270       .  A
C892       C1143   1.433   1_655  S
O893       Ni912   1.924       .  S
O893        C899   1.272       .  A
O894       Ni912   1.899       .  S
O894        C896   1.270       .  A
Ni895       O898   1.934       .  S
Ni895       O900   1.899       .  S
C896        O906   1.278   1_655  A
C896       C1166   1.477       .  S
O897       Ni913   1.904       .  S
O897        C903   1.265   1_655  A
O898        C903   1.270       .  A
C899       C1146   1.483       .  S
O900        C902   1.271       .  A
O901       Ni912   1.934       .  S
C902        O908   1.278   1_455  A
C902       C1176   1.477       .  S
C903       C1142   1.433   1_455  S
H904        O905   0.966       .  S
O905       Ni913   1.918       .  S
O906       Ni907   1.941   1_556  S
Ni907       O911   1.903   1_554  S
Ni907       O909   1.903       .  S
O908       Ni913   1.941       .  S
C910       C1156   1.482       .  S
O915       Ni921   1.924       .  S
O915        C936   1.272       .  A
O916       Ni939   1.904       .  S
O916        C925   1.269       .  A
O917        H940   0.966       .  S
O917       Ni921   1.920       .  S
O917       Ni939   1.907   1_455  S
O917       Ni933   1.918       .  S
C918        O935   1.265   1_655  A
C918        O927   1.270       .  A
C918       C1120   1.433   1_655  S
O919       Ni938   1.923       .  S
O919        C925   1.272       .  A
O920       Ni938   1.899       .  S
O920        C922   1.271       .  A
Ni921       O924   1.934       .  S
Ni921       O926   1.899       .  S
C922        O932   1.278   1_655  A
C922       C1179   1.478       .  S
O923       Ni939   1.904       .  S
O923        C929   1.265   1_655  A
O924        C929   1.270       .  A
C925       C1122   1.483       .  S
O926        C928   1.271       .  A
O927       Ni938   1.934       .  S
C928        O934   1.278   1_455  A
C928       C1169   1.477       .  S
C929       C1118   1.433   1_455  S
H930        O931   0.966       .  S
O931       Ni939   1.918       .  S
O931       Ni933   1.907   1_655  S
O931       Ni938   1.920       .  S
O932       Ni933   1.942       .  S
Ni933       O937   1.903       .  S
Ni933       O935   1.904       .  S
O934       Ni939   1.942       .  S
C936        O937   1.268       .  A
C936       C1132   1.482       .  S
O941       Ni947   1.924       .  S
O941        C962   1.272       .  A
O942       Ni965   1.903       .  S
O943        H966   0.966       .  S
O943       Ni959   1.918   1_556  S
C944        O961   1.265   1_556  A
C944        O953   1.270       .  A
C944       C1095   1.433       .  S
O945       Ni964   1.923       .  S
O945        C951   1.271       .  A
O946       Ni964   1.899       .  S
O946        C948   1.271       .  A
Ni947       O950   1.934       .  S
Ni947       O952   1.899       .  S
C948        O958   1.278       .  A
C948       C1101   1.477       .  S
O949       Ni965   1.903       .  S
O949        C955   1.265       .  A
O950        C955   1.270       .  A
C951       C1159   1.482       .  S
O952        C954   1.270       .  A
O953       Ni964   1.934       .  S
C954        O960   1.278       .  A
C954       C1111   1.477       .  S
C955       C1094   1.433       .  S
H956        O957   0.966       .  S
O957       Ni965   1.918       .  S
O958       Ni959   1.941   1_556  S
Ni959       O963   1.904   1_554  S
Ni959       O961   1.904       .  S
O960       Ni965   1.941       .  S
C962       C1149   1.483       .  S
O967       Ni973   1.923       .  S
O967        C988   1.271       .  A
O968       Ni991   1.903       .  S
O968        C977   1.268       .  A
O969        H992   0.966       .  S
O969       Ni973   1.920       .  S
O969       Ni991   1.907       .  S
O969       Ni985   1.918       .  S
C970        O987   1.265       .  A
C970        O979   1.270       .  A
C970       C1092   1.433       .  S
O971       Ni990   1.924       .  S
O971        C977   1.272       .  A
O972       Ni990   1.899       .  S
O972        C974   1.271       .  A
Ni973       O976   1.934       .  S
Ni973       O978   1.899       .  S
C974        O984   1.278       .  A
C974       C1108   1.477       .  S
O975       Ni991   1.904       .  S
O975        C981   1.265       .  A
O976        C981   1.270       .  A
C977       C1135   1.482       .  S
O978        C980   1.270       .  A
O979       Ni990   1.934       .  S
C980        O986   1.278       .  A
C980       C1098   1.477       .  S
C981       C1089   1.433       .  S
H982        O983   0.967       .  S
O983       Ni991   1.918       .  S
O983       Ni985   1.907       .  S
O983       Ni990   1.920       .  S
O984       Ni985   1.942       .  S
Ni985       O989   1.904       .  S
Ni985       O987   1.904       .  S
O986       Ni991   1.941       .  S
C988        O989   1.269       .  A
C988       C1125   1.483       .  S
O993      Ni1001   1.917       .  S
O993       C1003   1.279   1_554  A
O996      Ni1001   1.921   1_556  S
O996       C1006   1.283       .  A
O998      Ni1002   1.921       .  S
O998       C1005   1.283   1_655  A
O999      Ni1002   1.917       .  S
O999       C1004   1.279       .  A
C1003      C1144   1.433       .  S
C1004      C1141   1.433       .  S
C1005      C1080   1.486       .  S
C1006      C1070   1.485       .  S
O1007     Ni1015   1.921       .  S
O1007      C1017   1.283   1_655  A
O1008      C1018   1.283   1_645  A
O1009      C1019   1.279   1_655  A
O1010     Ni1015   1.917       .  S
O1010      C1020   1.279       .  A
O1011      C1020   1.280   1_455  A
O1012     Ni1016   1.917       .  S
O1012      C1019   1.279       .  A
O1013     Ni1016   1.921       .  S
O1013      C1018   1.283       .  A
O1014     Ni1016   1.921       .  S
C1017      C1073   1.486       .  S
C1018      C1083   1.486   1_565  S
C1019      C1119   1.434       .  S
C1020      C1117   1.434       .  S
O1022     Ni1029   1.921       .  S
O1022      C1032   1.283       .  A
O1023     Ni1029   1.917       .  S
O1023      C1033   1.279       .  A
O1025     Ni1030   1.916       .  S
O1025      C1034   1.279   1_554  A
O1026      C1033   1.279       .  A
O1027      C1032   1.283       .  A
O1028     Ni1030   1.921   1_556  S
O1028      C1031   1.283       .  A
C1031      C1050   1.486       .  S
C1032      C1060   1.486       .  S
C1033      C1093   1.433       .  S
C1034      C1096   1.433       .  S
O1035     Ni1043   1.921       .  S
O1036     Ni1043   1.921       .  S
O1036      C1046   1.283       .  A
O1037     Ni1043   1.917       .  S
O1037      C1047   1.279       .  A
O1038      C1048   1.280       .  A
O1039     Ni1044   1.917       .  S
O1039      C1048   1.279       .  A
O1040      C1047   1.279       .  A
O1041     Ni1044   1.921       .  S
O1042     Ni1044   1.921       .  S
O1042      C1045   1.283   1_565  A
C1045      C1063   1.486       .  S
C1046      C1053   1.486       .  S
C1047      C1090   1.433       .  S
C1048      C1091   1.434       .  S
C1049      C1054   1.400       .  A
C1049      H1055   1.083       .  S
C1050      C1051   1.406   1_565  A
C1051      C1052   1.400       .  A
C1051      H1056   1.083       .  S
C1052      H1057   1.083       .  S
C1053      C1054   1.406       .  A
C1054      H1058   1.083       .  S
C1059      C1060   1.406       .  A
C1059      C1064   1.400       .  A
C1059      H1065   1.083       .  S
C1061      C1062   1.400       .  A
C1061      H1066   1.083       .  S
C1062      C1063   1.406   1_565  A
C1062      H1067   1.083       .  S
C1064      H1068   1.083       .  S
C1069      C1074   1.400       .  A
C1069      H1075   1.083       .  S
C1070      C1071   1.406   1_465  A
C1071      C1072   1.400       .  A
C1071      H1076   1.083       .  S
C1072      H1077   1.083       .  S
C1073      C1074   1.406       .  A
C1074      H1078   1.083       .  S
C1079      C1080   1.406   1_655  A
C1079      C1084   1.400       .  A
C1079      H1085   1.083       .  S
C1081      C1082   1.400       .  A
C1081      H1086   1.083       .  S
C1082      C1083   1.406   1_565  A
C1082      H1087   1.083       .  S
C1084      H1088   1.083       .  S
C1089      C1090   1.205       .  T
C1091      C1092   1.205       .  T
C1093      C1094   1.205       .  T
C1095      C1096   1.205       .  T
C1097      C1098   1.406       .  A
C1097      C1102   1.395       .  A
C1097      H1103   1.083       .  S
C1098      C1099   1.405       .  A
C1099      C1100   1.395       .  A
C1099      H1104   1.083       .  S
C1100      C1101   1.406       .  A
C1100      H1105   1.083       .  S
C1101      C1102   1.405       .  A
C1102      H1106   1.083       .  S
C1107      C1108   1.405       .  A
C1107      C1112   1.395       .  A
C1107      H1113   1.083       .  S
C1108      C1109   1.406       .  A
C1109      C1110   1.395       .  A
C1109      H1114   1.083       .  S
C1110      C1111   1.405       .  A
C1110      H1115   1.083       .  S
C1111      C1112   1.406       .  A
C1112      H1116   1.083       .  S
C1117      C1118   1.205       .  T
C1119      C1120   1.205       .  T
C1121      C1122   1.408       .  A
C1121      C1126   1.397       .  A
C1121      H1127   1.083       .  S
C1122      C1123   1.405       .  A
C1123      C1124   1.397       .  A
C1123      H1128   1.083       .  S
C1124      C1125   1.408       .  A
C1124      H1129   1.083       .  S
C1125      C1126   1.405       .  A
C1126      H1130   1.083       .  S
C1131      C1132   1.407       .  A
C1131      C1136   1.397       .  A
C1131      H1137   1.083       .  S
C1132      C1133   1.405       .  A
C1133      C1134   1.397       .  A
C1133      H1138   1.083       .  S
C1134      C1135   1.407       .  A
C1134      H1139   1.083       .  S
C1135      C1136   1.405       .  A
C1136      H1140   1.083       .  S
C1141      C1142   1.205       .  T
C1143      C1144   1.205       .  T
C1145      C1150   1.397       .  A
C1145      H1151   1.083       .  S
C1146      C1147   1.408       .  A
C1147      C1148   1.397       .  A
C1147      H1152   1.083       .  S
C1148      H1153   1.083       .  S
C1149      C1150   1.408       .  A
C1150      H1154   1.083       .  S
C1155      C1156   1.408       .  A
C1155      C1160   1.397       .  A
C1155      H1161   1.083       .  S
C1157      C1158   1.397       .  A
C1157      H1162   1.083       .  S
C1158      C1159   1.408       .  A
C1158      H1163   1.083       .  S
C1160      H1164   1.083       .  S
C1165      C1166   1.406       .  A
C1165      C1170   1.395       .  A
C1165      H1171   1.083       .  S
C1166      C1167   1.405   1_655  A
C1167      C1168   1.395       .  A
C1167      H1172   1.083       .  S
C1168      C1169   1.406       .  A
C1168      H1173   1.083       .  S
C1169      C1170   1.405   1_455  A
C1170      H1174   1.083       .  S
C1175      C1176   1.405   1_655  A
C1175      C1180   1.395       .  A
C1175      H1181   1.083       .  S
C1176      C1177   1.406       .  A
C1177      C1178   1.395       .  A
C1177      H1182   1.083       .  S
C1178      C1179   1.405   1_455  A
C1178      H1183   1.083       .  S
C1179      C1180   1.406       .  A
C1180      H1184   1.083       .  S
