geometry optimzed in LAMMPS
_audit_creation_date              2020-11-30 
_audit_creation_method            'lammps2cif' 
_symmetry_space_group_name_H-M    'P1' 
_symmetry_Int_Tables_number       1 
_symmetry_cell_setting            triclinic 
loop_ 
_symmetry_equiv_pos_as_xyz 
  x,y,z 
_cell_length_a                    45.89882535 
_cell_length_b                    25.992987672980373 
_cell_length_c                    34.560516943880394 
_cell_angle_alpha                 89.72761233466515 
_cell_angle_beta                  89.9187483123807 
_cell_angle_gamma                 90.02215357090158 
loop_ 
_atom_site_label 
_atom_site_type_symbol 
_atom_site_fract_x 
_atom_site_fract_y 
_atom_site_fract_z 
_atom_site_charge 
N1          N  0.25054473  0.42121180  0.99276635    -0.36300
N2          N  0.20366206  0.49644221  0.49431038    -0.56800
N3          N  0.24785895  0.57681822  0.49225195    -0.36200
N4          N  0.29428924  0.50155135  0.99235778    -0.56800
C5          C  0.22723261  0.39236229  0.00340609     0.27300
C6          C  0.27481832  0.39533586  0.00398463     0.27300
C7          C  0.22372859  0.60503084  0.49971856     0.27300
C8          C  0.27119209  0.60754300  0.49853236     0.27300
C9          C  0.18810385  0.45381446  0.98547930     0.36000
C10         C  0.18678155  0.53761497  0.48562702     0.36000
C11         C  0.31186235  0.46069032  0.98660726     0.36000
C12         C  0.31040070  0.54391112  0.48503842     0.36000
C13         C  0.23699766  0.34849683  0.02248495    -0.21500
C14         C  0.26688331  0.34992875  0.02226282    -0.21500
C15         C  0.23187604  0.65426875  0.51077704    -0.21500
C16         C  0.26174631  0.65583527  0.50991325    -0.21500
C17         C  0.16110231  0.46830638  0.47086361    -0.22600
C18         C  0.16016854  0.52128997  0.47149201    -0.22600
C19         C  0.33948276  0.47704023  0.97594208    -0.22600
C20         C  0.33855670  0.52995773  0.97495720    -0.22600
C21         C  0.19772045  0.40267907  0.99319710    -0.17900
C22         C  0.30382500  0.40956497  0.99502031    -0.17900
C23         C  0.30057456  0.59471968  0.49078488    -0.17900
C24         C  0.19474246  0.58944072  0.49233233    -0.17900
H25         H  0.22408769  0.31809589  0.03515121     0.15000
H26         H  0.28103889  0.32055811  0.03409803     0.15000
H27         H  0.21784974  0.68650372  0.51741920     0.15000
H28         H  0.27493717  0.68938106  0.51572001     0.15000
H29         H  0.14377887  0.44388945  0.46043033     0.13300
H30         H  0.14207165  0.54502667  0.46226704     0.13300
H31         H  0.35847720  0.45347296  0.97052863     0.13300
H32         H  0.35668990  0.55521668  0.96848918     0.13300
H33         H  0.24998594  0.45293141  0.97444172     0.26500
H34         H  0.24824078  0.54146077  0.47877966     0.26500
N35         N  0.49861319  0.92137231  0.48857676    -0.36300
N36         N  0.04441403  0.99732296  0.48601884    -0.56800
N37         N  0.49977760  0.07637181  0.48929426    -0.36200
N38         N  0.45356788  0.00078496  0.48817180    -0.56800
C39         C  0.02176139  0.89495571  0.47431004     0.27300
C40         C  0.47416602  0.89659700  0.47694701     0.27300
C41         C  0.02385683  0.10301277  0.47859337     0.27300
C42         C  0.47632174  0.10471703  0.47873591     0.27300
C43         C  0.06056217  0.95500306  0.49340079     0.36000
C44         C  0.06080844  0.03825533  0.49597752     0.36000
C45         C  0.43763152  0.95928356  0.49878718     0.36000
C46         C  0.43832782  0.04290709  0.49888477     0.36000
C47         C  0.01178274  0.85415462  0.45223203    -0.21500
C48         C  0.48187325  0.85529134  0.45399949    -0.21500
C49         C  0.01574572  0.14831222  0.46033431    -0.21500
C50         C  0.48580863  0.14892261  0.45967476    -0.21500
C51         C  0.08738974  0.96934274  0.50854781    -0.22600
C52         C  0.08762470  0.02220076  0.50969784    -0.22600
C53         C  0.41223302  0.97498809  0.51693544    -0.22600
C54         C  0.41267830  0.02798876  0.51705860    -0.22600
C55         C  0.05144161  0.90469550  0.48363578    -0.17900
C56         C  0.44533005  0.90822395  0.48920562    -0.17900
C57         C  0.44709227  0.09395312  0.49000497    -0.17900
C58         C  0.05264092  0.08953713  0.48875459    -0.17900
H59         H  0.02458284  0.82640780  0.43632086     0.15000
H60         H  0.46733263  0.82881104  0.43992057     0.15000
H61         H  0.02980789  0.17816591  0.44892053     0.15000
H62         H  0.47272222  0.17915458  0.44693961     0.15000
H63         H  0.10509666  0.94507353  0.51809002     0.13300
H64         H  0.10557742  0.04598006  0.51919922     0.13300
H65         H  0.39522997  0.95112464  0.52918962     0.13300
H66         H  0.39608902  0.05224689  0.52964376     0.13300
H67         H  0.49944632  0.95076246  0.50898752     0.21100
H68         H  0.49949371  0.04427109  0.50747993     0.26500
O69         O  0.14246647  0.18371109  0.41342613    -0.78100
C70         C  0.07482818  0.13060426  0.49110031     0.82900
O71         O  0.08743701  0.33613613  0.44806800    -0.79200
O72         O  0.09141757  0.25205217  0.07591181    -0.80700
O73         O  0.18619885  0.20563050  0.04228200    -0.80500
O74         O  0.18457588  0.19720853  0.44352316    -0.79200
Zn75       Zn  0.11106434  0.21013513  0.44794808     1.55700
O76         O  0.14696261  0.17247049  0.07141482    -0.80600
Cd77       Cd  0.17014730  0.23870531  0.49139736     1.59700
Cd78       Cd  0.11344900  0.31677365  0.49633070     1.59600
O79         O  0.18674517  0.31293092  0.48694166    -0.80500
O80         O  0.12670993  0.24239464  0.49339694    -1.91000
Cd81       Cd  0.11280459  0.20256344  0.03930543     1.59900
O82         O  0.14951468  0.36576338  0.49742296    -0.80500
O83         O  0.08416491  0.14434296  0.02416624    -0.79200
C84         C  0.08067967  0.30801854  0.41917687     0.83400
C85         C  0.17007536  0.18033684  0.41480294     0.83000
O86         O  0.08351073  0.15210520  0.46003781    -0.78100
C87         C  0.17431463  0.18064913  0.07005747     0.83800
O88         O  0.08894223  0.26141007  0.41747473    -0.78200
C89         C  0.17670478  0.35821316  0.49217038     0.84000
C90         C  0.08496223  0.29967420  0.07647608     0.84300
O91         O  0.09094367  0.32944304  0.04801880    -0.80600
O92         O  0.39541868  0.31819781  0.07368855    -0.78100
C93         C  0.32631658  0.36875177  0.49446921     0.82900
O94         O  0.34027202  0.16384283  0.04549592    -0.79200
O95         O  0.33638718  0.24199464  0.41636469    -0.80700
O96         O  0.43575034  0.28984750  0.44443892    -0.80500
O97         O  0.43589951  0.29320778  0.04371605    -0.79200
Zn98       Zn  0.36261290  0.29110883  0.04007465     1.55700
O99         O  0.39534910  0.31238027  0.41253138    -0.80600
Cd100      Cd  0.41987635  0.25662694  0.49515964     1.59700
Cd101      Cd  0.36290455  0.18013082  0.49421326     1.59600
O102        O  0.43612034  0.18295896  0.49716892    -0.80500
O103        O  0.37651106  0.25442059  0.49507608    -1.91000
Cd104      Cd  0.36173585  0.29066530  0.44833936     1.59900
O105        O  0.39854019  0.13011047  0.48963147    -0.80500
O106        O  0.33562619  0.35290970  0.46192023    -0.79200
C107        C  0.33356744  0.19380901  0.07329649     0.83400
C108        C  0.42308430  0.31471387  0.07208081     0.83000
O109        O  0.33479642  0.34886242  0.02628023    -0.78100
C110        C  0.42291559  0.30852083  0.41482708     0.83800
O111        O  0.34090131  0.24104937  0.07259734    -0.78200
C112        C  0.42593155  0.13782138  0.49260413     0.84000
C113        C  0.32803764  0.19536053  0.41855912     0.84300
O114        O  0.33569371  0.16630587  0.44665716    -0.80600
O115        O  0.32978492  0.65847345  0.02045265    -0.78100
C116        C  0.41396988  0.69247543  0.06846680     0.82900
O117        O  0.33100375  0.84565731  0.03217950    -0.79200
O118        O  0.43237852  0.81967047  0.49428594    -0.80700
O119        O  0.39164015  0.68670688  0.40920676    -0.80500
O120        O  0.33051089  0.65316369  0.45617188    -0.79200
Zn121      Zn  0.35503527  0.71953476  0.03357548     1.55700
O122        O  0.43096442  0.71468382  0.44030121    -0.80600
Cd123      Cd  0.35751794  0.71382517  0.44195965     1.59700
Cd124      Cd  0.35863172  0.82762206  0.48455177     1.59600
O125        O  0.33556883  0.76243198  0.40549092    -0.80500
O126        O  0.37106401  0.75267953  0.48817559    -1.91000
Cd127      Cd  0.41441645  0.74714493  0.49043591     1.59900
O128        O  0.33712552  0.84070530  0.43115281    -0.80500
O129        O  0.42833704  0.70632109  0.03864837    -0.79200
C130        C  0.32225873  0.81634058  0.05980752     0.83400
C131        C  0.32183302  0.63723745  0.48907155     0.83000
O132        O  0.38638129  0.69647408  0.07029799    -0.78100
C133        C  0.41909155  0.69281922  0.41139450     0.83800
O134        O  0.33034281  0.76966369  0.06199544    -0.78200
C135        C  0.33018204  0.81033366  0.40352658     0.84000
C136        C  0.42315121  0.86561905  0.49006277     0.84300
O137        O  0.39598817  0.87516242  0.48551640    -0.80600
O138        O  0.10468009  0.68910102  0.06770184    -0.78100
C139        C  0.17256770  0.63076149  0.49005126     0.82900
O140        O  0.15901209  0.84019254  0.03649599    -0.79200
O141        O  0.16487751  0.75914726  0.40807788    -0.80700
O142        O  0.06514413  0.70501004  0.43731190    -0.80500
O143        O  0.06442958  0.70795188  0.03487835    -0.79200
Zn144      Zn  0.13789568  0.71294539  0.03359553     1.55700
O145        O  0.10625417  0.68547279  0.40605801    -0.80600
Cd146      Cd  0.08051610  0.74269658  0.48600036     1.59700
Cd147      Cd  0.13681991  0.82162739  0.48500469     1.59600
O148        O  0.06273138  0.81525873  0.48664033    -0.80500
O149        O  0.12402961  0.74707988  0.48707214    -1.91000
Cd150      Cd  0.13956117  0.71002216  0.44120309     1.59900
O151        O  0.10006593  0.86914669  0.48073222    -0.80500
O152        O  0.16472930  0.64710997  0.45686887    -0.79200
C153        C  0.16615034  0.81172604  0.06525250     0.83400
C154        C  0.07703239  0.69072906  0.06496759     0.83000
O155        O  0.16399215  0.65207909  0.02123211    -0.78100
C156        C  0.07858459  0.68629224  0.40833699     0.83800
O157        O  0.15996285  0.76388559  0.06574169    -0.78200
C158        C  0.07269210  0.86079711  0.48346481     0.84000
C159        C  0.17226774  0.80637525  0.40926050     0.84300
O160        O  0.16359035  0.83584878  0.43650167    -0.80600
C161        C  0.48972863  0.36816934  0.20838086     0.02600
C162        C  0.02059099  0.37246309  0.21012285     0.02600
C163        C  0.03405404  0.37675512  0.24663678    -0.17900
C164        C  0.01794835  0.37172084  0.28093506     0.02600
C165        C  0.48727816  0.36866490  0.27893405     0.02600
C166        C  0.47349440  0.36905692  0.24279085    -0.17900
H167        H  0.45003456  0.36431093  0.24152671     0.04700
H168        H  0.05764008  0.37728027  0.24840455     0.04700
C169        C  0.48019821  0.63338263  0.20307641     0.02600
C170        C  0.01104556  0.63184553  0.20093800     0.02600
C171        C  0.02713833  0.62869632  0.23533100    -0.17900
C172        C  0.01362041  0.63319865  0.27154844     0.02600
C173        C  0.48279730  0.63449480  0.27371156     0.02600
C174        C  0.46656197  0.63307922  0.23941238    -0.17900
H175        H  0.44304181  0.63663385  0.24090389     0.04700
H176        H  0.05071795  0.62806282  0.23386432     0.04700
C177        C  0.22909403  0.87954946  0.20215262     0.02600
C178        C  0.25984433  0.87988773  0.19800104     0.02600
C179        C  0.27726349  0.88213061  0.23140484    -0.17900
C180        C  0.26498309  0.88037522  0.26881822     0.02600
C181        C  0.23417973  0.88076026  0.27288765     0.02600
C182        C  0.21683368  0.88369981  0.23940318    -0.17900
H183        H  0.19335733  0.88276810  0.24238116     0.04700
H184        H  0.30072440  0.87946240  0.22834380     0.04700
C185        C  0.26855917  0.13361681  0.21067151     0.02600
C186        C  0.23853895  0.12233412  0.20768830     0.02600
C187        C  0.22252349  0.11288976  0.24157157    -0.17900
C188        C  0.23443211  0.12344148  0.27823357     0.02600
C189        C  0.26459818  0.13484888  0.28112826     0.02600
C190        C  0.28154872  0.13700938  0.24735271    -0.17900
H191        H  0.30447177  0.14671755  0.24945274     0.04700
H192        H  0.19964948  0.10346466  0.23918569     0.04700
C193        C  0.17970314  0.80423855  0.13460358    -0.19900
C194        C  0.18101843  0.83341892  0.10019848    -0.06500
C195        C  0.19673928  0.88048616  0.10056499     0.14400
C196        C  0.21071897  0.89627526  0.13488469    -0.20000
C197        C  0.20985425  0.86613926  0.16876917    -0.06500
C198        C  0.19403084  0.81938564  0.16845281     0.14300
C199        C  0.19363355  0.78317314  0.20280565    -0.23300
H200        H  0.16766389  0.76837698  0.13503986     0.15600
H201        H  0.22348431  0.93134125  0.13490120     0.15700
C202        C  0.20007905  0.91327383  0.06479299    -0.23300
H203        H  0.18269212  0.74621769  0.19593390     0.05900
H204        H  0.18151246  0.80047356  0.22723088     0.09100
H205        H  0.21623999  0.77411710  0.21197321     0.09100
H206        H  0.17847444  0.92772840  0.05533386     0.09100
H207        H  0.21022011  0.89036478  0.04131944     0.09100
H208        H  0.21419564  0.94725199  0.07006333     0.05900
C209        C  0.22554660  0.81585169  0.32460911    -0.19900
C210        C  0.21976749  0.86530216  0.31006661    -0.06500
C211        C  0.19952787  0.89680008  0.32985467     0.14400
C212        C  0.18542573  0.87758931  0.36327498    -0.20000
C213        C  0.19056001  0.82731679  0.37703456    -0.06500
C214        C  0.21168567  0.79672863  0.35790300     0.14300
C215        C  0.22035930  0.74415274  0.37261708    -0.23300
H216        H  0.24067893  0.79137359  0.30917556     0.15600
H217        H  0.16943826  0.90129709  0.37785550     0.15700
C218        C  0.19249254  0.95038637  0.31579385    -0.23300
H219        H  0.23918782  0.72835704  0.35630242     0.05900
H220        H  0.20211126  0.71656580  0.36930635     0.09100
H221        H  0.22681075  0.74659242  0.40351294     0.09100
H222        H  0.18246831  0.94896874  0.28666844     0.09100
H223        H  0.21251387  0.97410599  0.31437250     0.09100
H224        H  0.17690081  0.97003547  0.33538305     0.05900
C225        C  0.06617138  0.62885777  0.11797692    -0.19900
C226        C  0.05909662  0.67443571  0.09828626    -0.06500
C227        C  0.03616262  0.70559590  0.11224264     0.14400
C228        C  0.02115196  0.69045640  0.14566155    -0.20000
C229        C  0.02715711  0.64365745  0.16447977    -0.06500
C230        C  0.05017135  0.61251181  0.15043836     0.14300
C231        C  0.05843022  0.56184643  0.16868856    -0.23300
H232        H  0.08400553  0.60532191  0.10753382     0.15600
H233        H  0.50502740  0.71614990  0.15774623     0.15700
C234        C  0.02822205  0.75610527  0.09324924    -0.23300
H235        H  0.05914294  0.53175525  0.14613193     0.05900
H236        H  0.04277403  0.54885503  0.19112422     0.09100
H237        H  0.08041406  0.56505280  0.18181469     0.09100
H238        H  0.01991249  0.74927552  0.06358010     0.09100
H239        H  0.04761110  0.78162303  0.09194074     0.09100
H240        H  0.51084176  0.77659169  0.10942062     0.05900
C241        C  0.06463922  0.70074140  0.34114933    -0.19900
C242        C  0.06199827  0.67001291  0.37423492    -0.06500
C243        C  0.04413386  0.62586912  0.37360008     0.14400
C244        C  0.02973299  0.61283539  0.33907725    -0.20000
C245        C  0.03209359  0.64415536  0.30587862    -0.06500
C246        C  0.04945333  0.68926757  0.30727703     0.14300
C247        C  0.05058624  0.72761589  0.27430880    -0.23300
H248        H  0.07811720  0.73499819  0.34225884     0.15600
H249        H  0.01590047  0.57904152  0.33823503     0.15700
C250        C  0.04037531  0.59273562  0.40908397    -0.23300
H251        H  0.06265568  0.76301053  0.28239786     0.05900
H252        H  0.02817844  0.73930544  0.26601014     0.09100
H253        H  0.06191335  0.71100952  0.24896603     0.09100
H254        H  0.03063702  0.61580331  0.43275945     0.09100
H255        H  0.06187298  0.57773936  0.41855682     0.09100
H256        H  0.02582173  0.55943950  0.40346796     0.05900
C257        C  0.30057545  0.87768849  0.36912852    -0.19900
C258        C  0.31555613  0.83047254  0.36780462    -0.06500
C259        C  0.31644525  0.80352458  0.33199251     0.14400
C260        C  0.30063854  0.82229886  0.30024176    -0.20000
C261        C  0.28446683  0.86789752  0.30225992    -0.06500
C262        C  0.28555631  0.89715289  0.33667773     0.14300
C263        C  0.27184158  0.94951683  0.33977639    -0.23300
H264        H  0.30047943  0.89970066  0.39568703     0.15600
H265        H  0.30012297  0.80014780  0.27374133     0.15700
C266        C  0.33425399  0.75530433  0.32610332    -0.23300
H267        H  0.28858325  0.97786500  0.34874447     0.05900
H268        H  0.25425043  0.94866378  0.36184964     0.09100
H269        H  0.26281243  0.96306186  0.31182650     0.09100
H270        H  0.32513244  0.72308111  0.34345188     0.09100
H271        H  0.35728410  0.76246795  0.33430201     0.09100
H272        H  0.33419050  0.74274485  0.29541918     0.05900
C273        C  0.26897441  0.81875476  0.14427609    -0.19900
C274        C  0.27417863  0.86729193  0.16026483    -0.06500
C275        C  0.29313445  0.90157822  0.14066457     0.14400
C276        C  0.30739723  0.88546046  0.10651641    -0.20000
C277        C  0.30306391  0.83579956  0.09148232    -0.06500
C278        C  0.28241862  0.80305467  0.10988774     0.14300
C279        C  0.27364873  0.75180357  0.09314718    -0.23300
H280        H  0.25446003  0.79244458  0.15919982     0.15600
H281        H  0.32280047  0.91101032  0.09240276     0.15700
C282        C  0.29828476  0.95502424  0.15574688    -0.23300
H283        H  0.25495341  0.73455336  0.10902628     0.05900
H284        H  0.29183448  0.72385548  0.09491956     0.09100
H285        H  0.26683125  0.75718851  0.06260513     0.09100
H286        H  0.30804300  0.95331088  0.18505082     0.09100
H287        H  0.27727742  0.97603941  0.15716460     0.09100
H288        H  0.31342306  0.97701440  0.13684674     0.05900
C289        C  0.42933556  0.63101081  0.35849330    -0.19900
C290        C  0.43722531  0.67591484  0.37834093    -0.06500
C291        C  0.46024449  0.70653896  0.36368095     0.14400
C292        C  0.47422978  0.69205232  0.32947997    -0.20000
C293        C  0.46721070  0.64620994  0.31042386    -0.06500
C294        C  0.44432464  0.61526122  0.32516007     0.14300
C295        C  0.43495069  0.56571614  0.30656958    -0.23300
H296        H  0.41143513  0.60772558  0.36925457     0.15600
H297        H  0.99058407  0.71727725  0.31715696     0.15700
C298        C  0.46946012  0.75581391  0.38272369    -0.23300
H299        H  0.43386481  0.53508110  0.32892939     0.05900
H300        H  0.45010212  0.55268521  0.28363799     0.09100
H301        H  0.41289140  0.57055690  0.29394326     0.09100
H302        H  0.47823508  0.74720561  0.41194258     0.09100
H303        H  0.45052546  0.78223450  0.38475005     0.09100
H304        H  0.98690918  0.77589857  0.36623422     0.05900
C305        C  0.44301357  0.62691542  0.10446787    -0.19900
C306        C  0.42981356  0.67559587  0.10319858    -0.06500
C307        C  0.43202464  0.70873779  0.13523964     0.14400
C308        C  0.44789694  0.69294342  0.16765429    -0.20000
C309        C  0.46186628  0.64494998  0.16876687    -0.06500
C310        C  0.45879965  0.61084414  0.13728682     0.14300
C311        C  0.47123137  0.55722786  0.13884289    -0.23300
H312        H  0.44076593  0.60142443  0.07992550     0.15600
H313        H  0.45026842  0.71890279  0.19192006     0.15700
C314        C  0.41838073  0.76153224  0.13477630    -0.23300
H315        H  0.46569514  0.53495061  0.11250836     0.05900
H316        H  0.46225628  0.53635484  0.16431020     0.09100
H317        H  0.49526824  0.55859434  0.14116161     0.09100
H318        H  0.39439927  0.75815710  0.13154862     0.09100
H319        H  0.42731807  0.78436607  0.11024458     0.09100
H320        H  0.42281440  0.78286406  0.16191317     0.05900
C321        C  0.29138959  0.11147236  0.14741126    -0.19900
C322        C  0.28577589  0.14839419  0.17596517    -0.06500
C323        C  0.29549738  0.19938437  0.17026872     0.14400
C324        C  0.31129244  0.21169461  0.13705740    -0.20000
C325        C  0.31709425  0.17525943  0.10800926    -0.06500
C326        C  0.30684618  0.12411454  0.11338589     0.14300
C327        C  0.31178671  0.08266447  0.08378122    -0.23300
H328        H  0.28345383  0.07262077  0.15176715     0.15600
H329        H  0.31851227  0.25117656  0.13372568     0.15700
C330        C  0.28853266  0.24278145  0.19752413    -0.23300
H331        H  0.30173640  0.04561286  0.09267953     0.05900
H332        H  0.33550466  0.07604632  0.07989510     0.09100
H333        H  0.30176070  0.09404561  0.05581735     0.09100
H334        H  0.27290924  0.23145436  0.22024412     0.09100
H335        H  0.27828176  0.27490849  0.18118367     0.09100
H336        H  0.30886661  0.25689358  0.21122339     0.05900
C337        C  0.29241522  0.21264397  0.36653180    -0.19900
C338        C  0.30916230  0.17608800  0.38669813    -0.06500
C339        C  0.30945007  0.12459896  0.37333495     0.14400
C340        C  0.29449902  0.11218870  0.33900873    -0.20000
C341        C  0.27865942  0.14945306  0.31834295    -0.06500
C342        C  0.27733061  0.20020318  0.33268493     0.14300
C343        C  0.26094038  0.24216769  0.31195370    -0.23300
H344        H  0.29167372  0.25194865  0.37684235     0.15600
H345        H  0.29528566  0.07325171  0.32798378     0.15700
C346        C  0.32605789  0.08293550  0.39417817    -0.23300
H347        H  0.26254837  0.27958197  0.32719616     0.05900
H348        H  0.23761648  0.23230429  0.31006388     0.09100
H349        H  0.27006274  0.24764340  0.28267131     0.09100
H350        H  0.31711090  0.07780031  0.42380555     0.09100
H351        H  0.34949264  0.09328183  0.39580356     0.09100
H352        H  0.32431828  0.04538562  0.37915355     0.05900
C353        C  0.45381316  0.39079893  0.15702025    -0.19900
C354        C  0.47382989  0.35510000  0.17222347    -0.06500
C355        C  0.47659447  0.30641311  0.15441185     0.14400
C356        C  0.46099008  0.29623292  0.12052031    -0.20000
C357        C  0.44084373  0.33154995  0.10545453    -0.06500
C358        C  0.43702481  0.37940626  0.12407359     0.14300
C359        C  0.41577240  0.41877927  0.10897018    -0.23300
H360        H  0.45123211  0.42763156  0.17120563     0.15600
H361        H  0.46331924  0.25888511  0.10697907     0.15700
C362        C  0.99420732  0.26294725  0.17145936    -0.23300
H363        H  0.41661705  0.45494361  0.12593978     0.05900
H364        H  0.39322982  0.40353802  0.11083721     0.09100
H365        H  0.42100431  0.42827010  0.07838325     0.09100
H366        H  0.00395664  0.27240007  0.19981550     0.09100
H367        H  0.01184519  0.25209374  0.15105711     0.09100
H368        H  0.97987681  0.22905282  0.17614284     0.05900
C369        C  0.45994678  0.30432177  0.31744974    -0.19900
C370        C  0.46983820  0.35511706  0.31359316    -0.06500
C371        C  0.46378668  0.39107785  0.34295536     0.14400
C372        C  0.44913511  0.37476839  0.37655806    -0.20000
C373        C  0.44014998  0.32354420  0.38083804    -0.06500
C374        C  0.44529271  0.28800356  0.35086972     0.14300
C375        C  0.43515889  0.23297029  0.35410247    -0.23300
H376        H  0.46398651  0.27723178  0.29431363     0.15600
H377        H  0.44417604  0.40215231  0.39918649     0.15700
C378        C  0.97137276  0.44694051  0.33781356    -0.23300
H379        H  0.44108362  0.21032481  0.32807313     0.05900
H380        H  0.41109651  0.23181369  0.35736359     0.09100
H381        H  0.44538445  0.21437892  0.37968750     0.09100
H382        H  0.96072115  0.46164136  0.31118973     0.09100
H383        H  0.99515297  0.45194288  0.33476430     0.09100
H384        H  0.96404146  0.47033420  0.36280467     0.05900
C385        C  0.17710785  0.18103043  0.34451243    -0.19900
C386        C  0.18524813  0.16028408  0.38034896    -0.06500
C387        C  0.20726156  0.12244636  0.38194753     0.14400
C388        C  0.22095133  0.10706898  0.34744847    -0.20000
C389        C  0.21449454  0.13107031  0.31187377    -0.06500
C390        C  0.19163813  0.16787785  0.31037575     0.14300
C391        C  0.18358602  0.19674995  0.27380286    -0.23300
H392        H  0.16000650  0.20979185  0.34350084     0.15600
H393        H  0.23775286  0.07785497  0.34848607     0.15700
C394        C  0.21629517  0.09827117  0.41973829    -0.23300
H395        H  0.16825078  0.22881425  0.27972107     0.05900
H396        H  0.17245184  0.17086498  0.25320510     0.09100
H397        H  0.20324160  0.21372802  0.26002056     0.09100
H398        H  0.19714525  0.07999489  0.43385772     0.09100
H399        H  0.22547744  0.12802972  0.43914825     0.09100
H400        H  0.23323707  0.06829747  0.41549469     0.05900
C401        C  0.19228651  0.11259347  0.11575250    -0.19900
C402        C  0.19229854  0.16430367  0.10346632    -0.06500
C403        C  0.20727779  0.20128892  0.12565525     0.14400
C404        C  0.22144485  0.18605568  0.15960436    -0.20000
C405        C  0.22235876  0.13440797  0.17139729    -0.06500
C406        C  0.20758286  0.09707036  0.14926286     0.14300
C407        C  0.20820371  0.04116198  0.16073002    -0.23300
H408        H  0.18041911  0.08436362  0.09900861     0.15600
H409        H  0.23179346  0.21489781  0.17736169     0.15700
C410        C  0.20770957  0.25731523  0.11430891    -0.23300
H411        H  0.19606954  0.01698616  0.13980184     0.05900
H412        H  0.19808803  0.03586832  0.18964259     0.09100
H413        H  0.23108652  0.02747272  0.16175062     0.09100
H414        H  0.18510569  0.27218815  0.11187306     0.09100
H415        H  0.21907758  0.26163818  0.08621256     0.09100
H416        H  0.21949395  0.28120168  0.13578264     0.05900
C417        C  0.05080147  0.29060920  0.36115676    -0.19900
C418        C  0.06306985  0.32770810  0.38586477    -0.06500
C419        C  0.06023602  0.38044980  0.37569476     0.14400
C420        C  0.04564511  0.39402968  0.34116357    -0.20000
C421        C  0.03363058  0.35644865  0.31683035    -0.06500
C422        C  0.03695762  0.30399739  0.32662738     0.14300
C423        C  0.52732230  0.26063580  0.30067276    -0.23300
H424        H  0.05270324  0.25002554  0.36810402     0.15600
H425        H  0.04405033  0.43412386  0.33278223     0.15700
C426        C  0.07313758  0.42251031  0.40012818    -0.23300
H427        H  0.51141898  0.23591099  0.31630157     0.05900
H428        H  0.54651406  0.23686461  0.29279778     0.09100
H429        H  0.51715915  0.27393136  0.27337448     0.09100
H430        H  0.09704475  0.41699128  0.40270324     0.09100
H431        H  0.06301223  0.42201080  0.42931179     0.09100
H432        H  0.06929613  0.46118801  0.38729899     0.05900
C433        C  0.05256211  0.36467549  0.10785414    -0.19900
C434        C  0.07027667  0.32072661  0.11146326    -0.06500
C435        C  0.07393094  0.29821118  0.14866309     0.14400
C436        C  0.05856162  0.31825124  0.18016401    -0.20000
C437        C  0.03946426  0.36011864  0.17614203    -0.06500
C438        C  0.03739246  0.38498998  0.13972060     0.14300
C439        C  0.51989195  0.43327402  0.13347180    -0.23300
H440        H  0.05024562  0.38316871  0.07984627     0.15600
H441        H  0.06036119  0.29919325  0.20803634     0.15700
C442        C  0.09399151  0.25315749  0.15603955    -0.23300
H443        H  0.53406900  0.46345749  0.12077377     0.05900
H444        H  0.51058333  0.44857180  0.16071131     0.09100
H445        H  0.50198002  0.42558197  0.11275007     0.09100
H446        H  0.11628569  0.26231319  0.14553537     0.09100
H447        H  0.08559964  0.21826700  0.14141873     0.09100
H448        H  0.09564074  0.24371426  0.18734516     0.05900
N449        N  0.25054488  0.42121107  0.49276628    -0.36300
N450        N  0.20366199  0.49644266  0.99431111    -0.56800
N451        N  0.24785894  0.57681891  0.99225295    -0.36200
N452        N  0.29428928  0.50155045  0.49235821    -0.56800
C453        C  0.22723265  0.39236177  0.50340598     0.27300
C454        C  0.27481835  0.39533488  0.50398485     0.27300
C455        C  0.22372859  0.60503142  0.99971943     0.27300
C456        C  0.27119209  0.60754368  0.99853294     0.27300
C457        C  0.18810408  0.45381395  0.48547835     0.36000
C458        C  0.18678146  0.53761553  0.98562809     0.36000
C459        C  0.31186249  0.46068938  0.48660817     0.36000
C460        C  0.31040060  0.54391205  0.98503797     0.36000
C461        C  0.23699750  0.34849630  0.52248500    -0.21500
C462        C  0.26688316  0.34992783  0.52226296    -0.21500
C463        C  0.23187606  0.65426942  0.01077767    -0.21500
C464        C  0.26174632  0.65583603  0.00991371    -0.21500
C465        C  0.16110194  0.46830707  0.97086513    -0.22600
C466        C  0.16016828  0.52129067  0.97149356    -0.22600
C467        C  0.33948298  0.47703928  0.47594341    -0.22600
C468        C  0.33855691  0.52995675  0.47495823    -0.22600
C469        C  0.19772058  0.40267867  0.49319663    -0.17900
C470        C  0.30382510  0.40956399  0.49502106    -0.17900
C471        C  0.30057449  0.59472051  0.99078498    -0.17900
C472        C  0.19474247  0.58944132  0.99233319    -0.17900
H473        H  0.22408739  0.31809559  0.53515132     0.15000
H474        H  0.28103864  0.32055711  0.53409829     0.15000
H475        H  0.21784975  0.68650441  0.01741964     0.15000
H476        H  0.27493716  0.68938197  0.01572005     0.15000
H477        H  0.14377833  0.44389029  0.96043218     0.13300
H478        H  0.14207133  0.54502748  0.96226894     0.13300
H479        H  0.35847746  0.45347200  0.47053033     0.13300
H480        H  0.35669016  0.55521567  0.46849033     0.13300
H481        H  0.24998623  0.45293036  0.47444183     0.26500
H482        H  0.24824069  0.54146079  0.97878049     0.26500
N483        N  0.49861311  0.92137234  0.98857613    -0.36300
N484        N  0.04441385  0.99732306  0.98601924    -0.56800
N485        N  0.49977739  0.07637204  0.98929480    -0.36200
N486        N  0.45356776  0.00078496  0.98817246    -0.56800
C487        C  0.02176150  0.89495569  0.97431039     0.27300
C488        C  0.47416590  0.89659717  0.97694644     0.27300
C489        C  0.02385657  0.10301287  0.97859374     0.27300
C490        C  0.47632147  0.10471736  0.97873703     0.27300
C491        C  0.06056208  0.95500326  0.99340118     0.36000
C492        C  0.06080816  0.03825551  0.99597805     0.36000
C493        C  0.43763147  0.95928335  0.99878760     0.36000
C494        C  0.43832759  0.04290694  0.99888554     0.36000
C495        C  0.01178288  0.85415461  0.95223238    -0.21500
C496        C  0.48187301  0.85529180  0.95399851    -0.21500
C497        C  0.01574542  0.14831214  0.96033451    -0.21500
C498        C  0.48580832  0.14892339  0.95967637    -0.21500
C499        C  0.08738960  0.96934304  0.00854832    -0.22600
C500        C  0.08762441  0.02220108  0.00969846    -0.22600
C501        C  0.41223293  0.97498759  0.01693591    -0.22600
C502        C  0.41267805  0.02798830  0.01705920    -0.22600
C503        C  0.05144166  0.90469562  0.98363616    -0.17900
C504        C  0.44533000  0.90822388  0.98920545    -0.17900
C505        C  0.44709197  0.09395316  0.99000598    -0.17900
C506        C  0.05264064  0.08953731  0.98875509    -0.17900
H507        H  0.02458299  0.82640784  0.93632120     0.15000
H508        H  0.46733234  0.82881169  0.93991947     0.15000
H509        H  0.02980758  0.17816572  0.94892060     0.15000
H510        H  0.47272190  0.17915561  0.94694163     0.15000
H511        H  0.10509656  0.94507392  0.01809052     0.13300
H512        H  0.10557705  0.04598050  0.01919994     0.13300
H513        H  0.39522990  0.95112392  0.02918990     0.13300
H514        H  0.39608865  0.05224626  0.02964428     0.13300
H515        H  0.49944634  0.95076235  0.00898716     0.21100
H516        H  0.49949359  0.04427033  0.00748028     0.26500
O517        O  0.14246617  0.18371079  0.91342678    -0.78100
C518        C  0.07482790  0.13060447  0.99110088     0.82900
O519        O  0.08743670  0.33613589  0.94806810    -0.79200
O520        O  0.09141745  0.25205201  0.57591120    -0.80700
O521        O  0.18619873  0.20562992  0.54228180    -0.80500
O522        O  0.18457574  0.19720784  0.94352345    -0.79200
Zn523      Zn  0.11106413  0.21013514  0.94794869     1.55700
O524        O  0.14696244  0.17246981  0.57141436    -0.80600
Cd525      Cd  0.17014728  0.23870540  0.99139752     1.59700
Cd526      Cd  0.11344879  0.31677368  0.99633098     1.59600
O527        O  0.18674513  0.31293119  0.98694181    -0.80500
O528        O  0.12670983  0.24239471  0.99339745    -1.91000
Cd529      Cd  0.11280464  0.20256337  0.53930489     1.59900
O530        O  0.14951456  0.36576343  0.99742339    -0.80500
O531        O  0.08416508  0.14434293  0.52416566    -0.79200
C532        C  0.08067944  0.30801817  0.91917698     0.83400
C533        C  0.17007505  0.18033608  0.91480338     0.83000
O534        O  0.08351042  0.15210548  0.96003841    -0.78100
C535        C  0.17431447  0.18064833  0.57005713     0.83800
O536        O  0.08894207  0.26140975  0.91747508    -0.78200
C537        C  0.17670468  0.35821339  0.99217075     0.84000
C538        C  0.08496223  0.29967409  0.57647562     0.84300
O539        O  0.09094389  0.32944304  0.54801849    -0.80600
O540        O  0.39541923  0.31819585  0.57368844    -0.78100
C541        C  0.32631646  0.36875277  0.99446849     0.82900
O542        O  0.34027247  0.16384160  0.54549575    -0.79200
O543        O  0.33638692  0.24199463  0.91636469    -0.80700
O544        O  0.43575001  0.28984678  0.94443941    -0.80500
O545        O  0.43590005  0.29320698  0.54371533    -0.79200
Zn546      Zn  0.36261327  0.29110758  0.54007474     1.55700
O547        O  0.39534900  0.31237963  0.91253136    -0.80600
Cd548      Cd  0.41987591  0.25662710  0.99516040     1.59700
Cd549      Cd  0.36290428  0.18013125  0.99421346     1.59600
O550        O  0.43611982  0.18295896  0.99717021    -0.80500
O551        O  0.37651069  0.25442114  0.99507626    -1.91000
Cd552      Cd  0.36173557  0.29066552  0.94833926     1.59900
O553        O  0.39853981  0.13011044  0.98963211    -0.80500
O554        O  0.33562606  0.35291046  0.96191957    -0.79200
C555        C  0.33356788  0.19380761  0.57329642     0.83400
C556        C  0.42308486  0.31471239  0.57208038     0.83000
O557        O  0.33479661  0.34886130  0.52628088    -0.78100
C558        C  0.42291546  0.30851986  0.91482732     0.83800
O559        O  0.34090178  0.24104794  0.57259737    -0.78200
C560        C  0.42593114  0.13782134  0.99260515     0.84000
C561        C  0.32803770  0.19536032  0.91855894     0.84300
O562        O  0.33569387  0.16630571  0.94665698    -0.80600
O563        O  0.32978525  0.65847212  0.52045280    -0.78100
C564        C  0.41396998  0.69247573  0.56846724     0.82900
O565        O  0.33100351  0.84565649  0.53217946    -0.79200
O566        O  0.43237850  0.81967028  0.99428528    -0.80700
O567        O  0.39163970  0.68670694  0.90920606    -0.80500
O568        O  0.33051099  0.65316393  0.95617179    -0.79200
Zn569      Zn  0.35503524  0.71953405  0.53357570     1.55700
O570        O  0.43096407  0.71468304  0.94030067    -0.80600
Cd571      Cd  0.35751781  0.71382544  0.94195942     1.59700
Cd572      Cd  0.35863164  0.82762244  0.98455148     1.59600
O573        O  0.33556850  0.76243217  0.90549103    -0.80500
O574        O  0.37106398  0.75267988  0.98817527    -1.91000
Cd575      Cd  0.41441638  0.74714466  0.99043541     1.59900
O576        O  0.33712523  0.84070566  0.93115260    -0.80500
O577        O  0.42833708  0.70632146  0.53864880    -0.79200
C578        C  0.32225819  0.81633967  0.55980726     0.83400
C579        C  0.32183290  0.63723827  0.98907150     0.83000
O580        O  0.38638137  0.69647412  0.57029847    -0.78100
C581        C  0.41909112  0.69281872  0.91139388     0.83800
O582        O  0.33034225  0.76966274  0.56199529    -0.78200
C583        C  0.33018165  0.81033380  0.90352654     0.84000
C584        C  0.42315120  0.86561893  0.99006232     0.84300
O585        O  0.39598817  0.87516241  0.98551599    -0.80600
O586        O  0.10468058  0.68910039  0.56770140    -0.78100
C587        C  0.17256780  0.63076220  0.99005184     0.82900
O588        O  0.15901224  0.84019165  0.53649551    -0.79200
O589        O  0.16487792  0.75914858  0.90807849    -0.80700
O590        O  0.06514450  0.70501054  0.93731167    -0.80500
O591        O  0.06442990  0.70795252  0.53487867    -0.79200
Zn592      Zn  0.13789601  0.71294483  0.53359500     1.55700
O593        O  0.10625469  0.68547311  0.90605815    -0.80600
Cd594      Cd  0.08051615  0.74269667  0.98600041     1.59700
Cd595      Cd  0.13681994  0.82162796  0.98500523     1.59600
O596        O  0.06273151  0.81525886  0.98664056    -0.80500
O597        O  0.12402965  0.74708030  0.98707245    -1.91000
Cd598      Cd  0.13956156  0.71002296  0.94120337     1.59900
O599        O  0.10006599  0.86914704  0.98073279    -0.80500
O600        O  0.16472991  0.64711112  0.95686934    -0.79200
C601        C  0.16615064  0.81172519  0.56525201     0.83400
C602        C  0.07703288  0.69072916  0.56496761     0.83000
O603        O  0.16399251  0.65207874  0.52123158    -0.78100
C604        C  0.07858509  0.68629257  0.90833694     0.83800
O605        O  0.15996329  0.76388469  0.56574121    -0.78200
C606        C  0.07269219  0.86079731  0.98346523     0.84000
C607        C  0.17226812  0.80637659  0.90926128     0.84300
O608        O  0.16359057  0.83584996  0.93650245    -0.80600
C609        C  0.48972867  0.36816754  0.70838069     0.02600
C610        C  0.02059101  0.37246324  0.71012243     0.02600
C611        C  0.03405401  0.37675532  0.74663640    -0.17900
C612        C  0.01794835  0.37172044  0.78093469     0.02600
C613        C  0.48727806  0.36866256  0.77893393     0.02600
C614        C  0.47349436  0.36905401  0.74279068    -0.17900
H615        H  0.45003457  0.36430710  0.74152647     0.04700
H616        H  0.05764005  0.37728094  0.74840416     0.04700
C617        C  0.48019843  0.63338143  0.70307620     0.02600
C618        C  0.01104627  0.63184535  0.70093808     0.02600
C619        C  0.02713892  0.62869594  0.73533115    -0.17900
C620        C  0.01362091  0.63319890  0.77154850     0.02600
C621        C  0.48279725  0.63449353  0.77371133     0.02600
C622        C  0.46656206  0.63307811  0.73941206    -0.17900
H623        H  0.44304190  0.63663309  0.74090340     0.04700
H624        H  0.05071854  0.62806186  0.73386456     0.04700
C625        C  0.22909361  0.87954981  0.70215239     0.02600
C626        C  0.25984390  0.87988739  0.69800069     0.02600
C627        C  0.27726316  0.88212969  0.73140444    -0.17900
C628        C  0.26498281  0.88037477  0.76881788     0.02600
C629        C  0.23417945  0.88076056  0.77288748     0.02600
C630        C  0.21683335  0.88370044  0.73940303    -0.17900
H631        H  0.19335700  0.88276916  0.74238110     0.04700
H632        H  0.30072404  0.87946090  0.72834330     0.04700
C633        C  0.26855891  0.13361586  0.71067139     0.02600
C634        C  0.23853868  0.12233307  0.70768816     0.02600
C635        C  0.22252315  0.11288910  0.74157151    -0.17900
C636        C  0.23443167  0.12344113  0.77823356     0.02600
C637        C  0.26459777  0.13484855  0.78112825     0.02600
C638        C  0.28154834  0.13700870  0.74735268    -0.17900
H639        H  0.30447138  0.14671684  0.74945276     0.04700
H640        H  0.19964918  0.10346373  0.73918561     0.04700
C641        C  0.17970336  0.80423796  0.63460319    -0.19900
C642        C  0.18101858  0.83341828  0.60019805    -0.06500
C643        C  0.19673895  0.88048599  0.60056468     0.14400
C644        C  0.21071842  0.89627547  0.63488446    -0.20000
C645        C  0.20985375  0.86613958  0.66876900    -0.06500
C646        C  0.19403057  0.81938573  0.66845263     0.14300
C647        C  0.19363288  0.78317388  0.70280584    -0.23300
H648        H  0.16766443  0.76837606  0.63503940     0.15600
H649        H  0.22348355  0.93134168  0.63490097     0.15700
C650        C  0.20007840  0.91327387  0.56479273    -0.23300
H651        H  0.18269165  0.74621816  0.69593422     0.05900
H652        H  0.18151139  0.80047480  0.72723059     0.09100
H653        H  0.21623922  0.77411823  0.71197408     0.09100
H654        H  0.17847364  0.92772774  0.55533356     0.09100
H655        H  0.21021975  0.89036526  0.54131919     0.09100
H656        H  0.21419460  0.94725249  0.57006317     0.05900
C657        C  0.22554644  0.81585248  0.82460937    -0.19900
C658        C  0.21976725  0.86530281  0.81006662    -0.06500
C659        C  0.19952799  0.89680112  0.82985503     0.14400
C660        C  0.18542620  0.87759075  0.86327576    -0.20000
C661        C  0.19056048  0.82731828  0.87703545    -0.06500
C662        C  0.21168608  0.79673005  0.85790387     0.14300
C663        C  0.22036049  0.74415498  0.87261884    -0.23300
H664        H  0.24067855  0.79137409  0.80917571     0.15600
H665        H  0.16943891  0.90129872  0.87785646     0.15700
C666        C  0.19249258  0.95038729  0.81579405    -0.23300
H667        H  0.23918895  0.72835933  0.85630403     0.05900
H668        H  0.20211274  0.71656719  0.86930924     0.09100
H669        H  0.22681242  0.74659615  0.90351445     0.09100
H670        H  0.18246784  0.94896931  0.78666895     0.09100
H671        H  0.21251393  0.97410685  0.81437198     0.09100
H672        H  0.17690120  0.97003668  0.83538356     0.05900
C673        C  0.06617219  0.62885804  0.61797713    -0.19900
C674        C  0.05909731  0.67443593  0.59828646    -0.06500
C675        C  0.03616326  0.70559600  0.61224285     0.14400
C676        C  0.02115274  0.69045650  0.64566184    -0.20000
C677        C  0.02715790  0.64365748  0.66447996    -0.06500
C678        C  0.05017206  0.61251183  0.65043842     0.14300
C679        C  0.05843047  0.56184583  0.66868799    -0.23300
H680        H  0.08400634  0.60532223  0.60753396     0.15600
H681        H  0.50502762  0.71614844  0.65774633     0.15700
C682        C  0.02822243  0.75610519  0.59324938    -0.23300
H683        H  0.05914285  0.53175514  0.64613096     0.05900
H684        H  0.04277418  0.54885446  0.69112355     0.09100
H685        H  0.08041435  0.56505119  0.68181408     0.09100
H686        H  0.01991262  0.74927518  0.56358038     0.09100
H687        H  0.04761140  0.78162310  0.59194049     0.09100
H688        H  0.51084167  0.77659018  0.60942062     0.05900
C689        C  0.06464017  0.70074102  0.84114911    -0.19900
C690        C  0.06199887  0.67001300  0.87423487    -0.06500
C691        C  0.04413424  0.62586946  0.87360020     0.14400
C692        C  0.02973315  0.61283596  0.83907750    -0.20000
C693        C  0.03209406  0.64415555  0.80587869    -0.06500
C694        C  0.04945432  0.68926717  0.80727680     0.14300
C695        C  0.05058797  0.72761486  0.77430822    -0.23300
H696        H  0.07811845  0.73499746  0.84225846     0.15600
H697        H  0.01590037  0.57904242  0.83823542     0.15700
C698        C  0.04037597  0.59273569  0.90908400    -0.23300
H699        H  0.06265793  0.76300905  0.78239702     0.05900
H700        H  0.02818037  0.73930540  0.76600934     0.09100
H701        H  0.06191498  0.71100760  0.74896565     0.09100
H702        H  0.03063806  0.61580322  0.93275985     0.09100
H703        H  0.06187372  0.57773904  0.91855627     0.09100
H704        H  0.02582221  0.55943978  0.90346810     0.05900
C705        C  0.30057513  0.87768842  0.86912821    -0.19900
C706        C  0.31555564  0.83047229  0.86780454    -0.06500
C707        C  0.31644454  0.80352383  0.83199263     0.14400
C708        C  0.30063800  0.82229811  0.80024172    -0.20000
C709        C  0.28446655  0.86789708  0.80225961    -0.06500
C710        C  0.28555607  0.89715267  0.83667732     0.14300
C711        C  0.27184137  0.94951666  0.83977585    -0.23300
H712        H  0.30047917  0.89970085  0.89568660     0.15600
H713        H  0.30012231  0.80014676  0.77374142     0.15700
C714        C  0.33425279  0.75530291  0.82610383    -0.23300
H715        H  0.28858303  0.97786482  0.84874401     0.05900
H716        H  0.25425013  0.94866366  0.86184900     0.09100
H717        H  0.26281235  0.96306170  0.81182589     0.09100
H718        H  0.32513098  0.72308026  0.84345278     0.09100
H719        H  0.35728301  0.76246599  0.83430223     0.09100
H720        H  0.33418907  0.74274287  0.79541982     0.05900
C721        C  0.26897374  0.81875430  0.64427570    -0.19900
C722        C  0.27417805  0.86729150  0.66026436    -0.06500
C723        C  0.29313378  0.90157775  0.64066388     0.14400
C724        C  0.30739650  0.88545982  0.60651573    -0.20000
C725        C  0.30306321  0.83579881  0.59148183    -0.06500
C726        C  0.28241786  0.80305410  0.60988729     0.14300
C727        C  0.27364779  0.75180312  0.59314670    -0.23300
H728        H  0.25445938  0.79244418  0.65919952     0.15600
H729        H  0.32279973  0.91100962  0.59240197     0.15700
C730        C  0.29828415  0.95502386  0.65574597    -0.23300
H731        H  0.25495245  0.73455305  0.60902584     0.05900
H732        H  0.29183347  0.72385488  0.59491891     0.09100
H733        H  0.26683025  0.75718820  0.56260468     0.09100
H734        H  0.30804258  0.95331058  0.68504980     0.09100
H735        H  0.27727678  0.97603895  0.65716392     0.09100
H736        H  0.31342226  0.97701406  0.63684556     0.05900
C737        C  0.42933494  0.63101027  0.85849251    -0.19900
C738        C  0.43722486  0.67591408  0.87834034    -0.06500
C739        C  0.46024429  0.70653783  0.86368061     0.14400
C740        C  0.47422973  0.69205096  0.82947980    -0.20000
C741        C  0.46721050  0.64620878  0.81042352    -0.06500
C742        C  0.44432409  0.61526052  0.82515935     0.14300
C743        C  0.43494976  0.56571594  0.80656839    -0.23300
H744        H  0.41143428  0.60772538  0.86925356     0.15600
H745        H  0.99058503  0.71727729  0.81715740     0.15700
C746        C  0.46945997  0.75581279  0.88272333    -0.23300
H747        H  0.43386337  0.53508059  0.82892792     0.05900
H748        H  0.45010125  0.55268476  0.78363696     0.09100
H749        H  0.41289063  0.57055762  0.79394174     0.09100
H750        H  0.47823461  0.74720465  0.91194240     0.09100
H751        H  0.45052540  0.78223361  0.88474930     0.09100
H752        H  0.98691034  0.77589807  0.86623501     0.05900
C753        C  0.44301382  0.62691553  0.60446771    -0.19900
C754        C  0.42981376  0.67559598  0.60319884    -0.06500
C755        C  0.43202490  0.70873755  0.63524010     0.14400
C756        C  0.44789741  0.69294291  0.66765447    -0.20000
C757        C  0.46186664  0.64494937  0.66876671    -0.06500
C758        C  0.45879988  0.61084381  0.63728654     0.14300
C759        C  0.47123129  0.55722728  0.63884248    -0.23300
H760        H  0.44076613  0.60142480  0.57992518     0.15600
H761        H  0.45026899  0.71890200  0.69192039     0.15700
C762        C  0.41838065  0.76153174  0.63477743    -0.23300
H763        H  0.46569476  0.53495019  0.61250803     0.05900
H764        H  0.46225623  0.53635442  0.66430987     0.09100
H765        H  0.49526817  0.55859337  0.64116093     0.09100
H766        H  0.39439918  0.75815614  0.63155013     0.09100
H767        H  0.42731760  0.78436613  0.61024577     0.09100
H768        H  0.42281445  0.78286324  0.66191443     0.05900
C769        C  0.29138879  0.11147144  0.64741046    -0.19900
C770        C  0.28577584  0.14839294  0.67596497    -0.06500
C771        C  0.29549834  0.19938266  0.67026905     0.14400
C772        C  0.31129352  0.21169273  0.63705780    -0.20000
C773        C  0.31709459  0.17525794  0.60800913    -0.06500
C774        C  0.30684550  0.12411357  0.61338510     0.14300
C775        C  0.31178488  0.08266416  0.58377957    -0.23300
H776        H  0.28345230  0.07262022  0.65176584     0.15600
H777        H  0.31851409  0.25117434  0.63372658     0.15700
C778        C  0.28853475  0.24277964  0.69752505    -0.23300
H779        H  0.30173381  0.04561288  0.59267731     0.05900
H780        H  0.33550266  0.07604449  0.57989297     0.09100
H781        H  0.30175891  0.09404703  0.55581603     0.09100
H782        H  0.27291136  0.23145321  0.72024524     0.09100
H783        H  0.27828432  0.27490758  0.68118509     0.09100
H784        H  0.30886915  0.25689025  0.71122407     0.05900
C785        C  0.29241479  0.21264324  0.86653217    -0.19900
C786        C  0.30916253  0.17608758  0.88669784    -0.06500
C787        C  0.30945091  0.12459883  0.87333403     0.14400
C788        C  0.29449969  0.11218860  0.83900790    -0.20000
C789        C  0.27865918  0.14945261  0.81834293    -0.06500
C790        C  0.27732988  0.20020242  0.83268552     0.14300
C791        C  0.26093871  0.24216662  0.81195524    -0.23300
H792        H  0.29167286  0.25194767  0.87684320     0.15600
H793        H  0.29528682  0.07325189  0.82798243     0.15700
C794        C  0.32605934  0.08293562  0.89417668    -0.23300
H795        H  0.26254680  0.27958080  0.82719779     0.05900
H796        H  0.23761484  0.23230266  0.81006660     0.09100
H797        H  0.27006012  0.24764286  0.78267236     0.09100
H798        H  0.31711264  0.07779969  0.92380415     0.09100
H799        H  0.34949399  0.09328270  0.89580183     0.09100
H800        H  0.32432000  0.04538593  0.87915175     0.05900
C801        C  0.45381296  0.39079679  0.65702041    -0.19900
C802        C  0.47383019  0.35509837  0.67222310    -0.06500
C803        C  0.47659559  0.30641216  0.65441065     0.14400
C804        C  0.46099138  0.29623218  0.62051896    -0.20000
C805        C  0.44084434  0.33154853  0.60545395    -0.06500
C806        C  0.43702471  0.37940416  0.62407369     0.14300
C807        C  0.41577162  0.41877649  0.60897097    -0.23300
H808        H  0.45123132  0.42762890  0.67120638     0.15600
H809        H  0.46332113  0.25888487  0.60697711     0.15700
C810        C  0.99420821  0.26294712  0.67145813    -0.23300
H811        H  0.41661600  0.45494068  0.62594081     0.05900
H812        H  0.39322926  0.40353434  0.61083838     0.09100
H813        H  0.42100305  0.42826787  0.57838398     0.09100
H814        H  0.00395724  0.27239969  0.69981447     0.09100
H815        H  0.01184626  0.25209428  0.65105596     0.09100
H816        H  0.97987792  0.22905235  0.67614120     0.05900
C817        C  0.45994802  0.30431892  0.81745095    -0.19900
C818        C  0.46983819  0.35511484  0.81359320    -0.06500
C819        C  0.46378573  0.39107639  0.84295456     0.14400
C820        C  0.44913401  0.37476740  0.87655727    -0.20000
C821        C  0.44015006  0.32354275  0.88083837    -0.06500
C822        C  0.44529408  0.28800107  0.85087115     0.14300
C823        C  0.43516163  0.23296715  0.85410529    -0.23300
H824        H  0.46398860  0.27722818  0.79431559     0.15600
H825        H  0.44417402  0.40215194  0.89918492     0.15700
C826        C  0.97137047  0.44693964  0.83781127    -0.23300
H827        H  0.44108695  0.21032097  0.82807654     0.05900
H828        H  0.41109927  0.23180881  0.85736635     0.09100
H829        H  0.44538759  0.21437773  0.87969082     0.09100
H830        H  0.96071833  0.46163930  0.81118744     0.09100
H831        H  0.99515057  0.45194327  0.83476162     0.09100
H832        H  0.96403897  0.47033347  0.86280221     0.05900
C833        C  0.17710674  0.18102819  0.84451264    -0.19900
C834        C  0.18524754  0.16028276  0.88034927    -0.06500
C835        C  0.20726136  0.12244569  0.88194776     0.14400
C836        C  0.22095119  0.10706857  0.84744864    -0.20000
C837        C  0.21449405  0.13106947  0.81187388    -0.06500
C838        C  0.19163713  0.16787606  0.81037590     0.14300
C839        C  0.18358484  0.19674826  0.77380314    -0.23300
H840        H  0.16000503  0.20978895  0.84350102     0.15600
H841        H  0.23775307  0.07785520  0.84848625     0.15700
C842        C  0.21629528  0.09827077  0.91973848    -0.23300
H843        H  0.16824906  0.22881177  0.77972137     0.05900
H844        H  0.17245120  0.17086315  0.75320499     0.09100
H845        H  0.20324031  0.21372741  0.76002132     0.09100
H846        H  0.19714557  0.07999391  0.93385797     0.09100
H847        H  0.22547733  0.12802954  0.93914842     0.09100
H848        H  0.23323744  0.06829755  0.91549478     0.05900
C849        C  0.19228569  0.11259252  0.61575269    -0.19900
C850        C  0.19229836  0.16430254  0.60346599    -0.06500
C851        C  0.20727830  0.20128749  0.62565440     0.14400
C852        C  0.22144542  0.18605422  0.65960345    -0.20000
C853        C  0.22235855  0.13440673  0.67139702    -0.06500
C854        C  0.20758201  0.09706934  0.64926309     0.14300
C855        C  0.20820227  0.04116108  0.66073071    -0.23300
H856        H  0.18041783  0.08436288  0.59900917     0.15600
H857        H  0.23179473  0.21489619  0.67736028     0.15700
C858        C  0.20771062  0.25731366  0.61430774    -0.23300
H859        H  0.19606781  0.01698536  0.63980277     0.05900
H860        H  0.19808659  0.03586812  0.68964335     0.09100
H861        H  0.23108495  0.02747108  0.66175137     0.09100
H862        H  0.18510688  0.27218733  0.61187206     0.09100
H863        H  0.21907852  0.26163588  0.58621127     0.09100
H864        H  0.21949540  0.28119995  0.63578119     0.05900
C865        C  0.05080328  0.29060856  0.86115488    -0.19900
C866        C  0.06306980  0.32770751  0.88586450    -0.06500
C867        C  0.06023416  0.38044942  0.87569596     0.14400
C868        C  0.04564345  0.39402942  0.84116462    -0.20000
C869        C  0.03363069  0.35644833  0.81682992    -0.06500
C870        C  0.03695939  0.30399698  0.82662555     0.14300
C871        C  0.52732468  0.26063460  0.80067070    -0.23300
H872        H  0.05270639  0.25002474  0.86810088     0.15600
H873        H  0.04404745  0.43412382  0.83278438     0.15700
C874        C  0.07313339  0.42251020  0.90013127    -0.23300
H875        H  0.51142201  0.23590794  0.81629898     0.05900
H876        H  0.54651708  0.23686531  0.79279516     0.09100
H877        H  0.51716109  0.27393032  0.77337277     0.09100
H878        H  0.09704073  0.41699416  0.90270715     0.09100
H879        H  0.06300738  0.42200767  0.92931444     0.09100
H880        H  0.06929063  0.46118811  0.88730321     0.05900
C881        C  0.05256236  0.36467577  0.60785375    -0.19900
C882        C  0.07027660  0.32072646  0.61146280    -0.06500
C883        C  0.07393047  0.29821058  0.64866256     0.14400
C884        C  0.05856150  0.31825122  0.68016357    -0.20000
C885        C  0.03946438  0.36011896  0.67614163    -0.06500
C886        C  0.03739263  0.38499025  0.63972017     0.14300
C887        C  0.51989165  0.43327382  0.63347163    -0.23300
H888        H  0.05024607  0.38316916  0.57984592     0.15600
H889        H  0.06036092  0.29919315  0.70803589     0.15700
C890        C  0.09399008  0.25315552  0.65603883    -0.23300
H891        H  0.53406851  0.46345756  0.62077363     0.05900
H892        H  0.51058296  0.44857135  0.66071117     0.09100
H893        H  0.50197974  0.42558147  0.61274991     0.09100
H894        H  0.11628454  0.26230995  0.64553504     0.09100
H895        H  0.08559755  0.21826585  0.64141758     0.09100
H896        H  0.09563885  0.24371156  0.68734437     0.05900
N897        N  0.75054587  0.42121355  0.99276992    -0.36300
N898        N  0.70366356  0.49644441  0.49431358    -0.56800
N899        N  0.74786092  0.57681912  0.49225225    -0.36200
N900        N  0.79429067  0.50155136  0.99235701    -0.56800
C901        C  0.72723369  0.39236493  0.00341064     0.27300
C902        C  0.77481931  0.39533771  0.00398883     0.27300
C903        C  0.72373096  0.60503214  0.49972049     0.27300
C904        C  0.77119445  0.60754300  0.49853266     0.27300
C905        C  0.68810530  0.45381629  0.98548167     0.36000
C906        C  0.68678332  0.53761741  0.48562983     0.36000
C907        C  0.81186318  0.46068964  0.98660623     0.36000
C908        C  0.81040199  0.54391049  0.48503611     0.36000
C909        C  0.73699843  0.34850054  0.02249109    -0.21500
C910        C  0.76688411  0.34993192  0.02226882    -0.21500
C911        C  0.73187903  0.65426925  0.51078001    -0.21500
C912        C  0.76174932  0.65583498  0.50991526    -0.21500
C913        C  0.66110372  0.46830900  0.47086692    -0.22600
C914        C  0.66017025  0.52129267  0.47149492    -0.22600
C915        C  0.83948317  0.47703841  0.97593810    -0.22600
C916        C  0.83855745  0.52995600  0.97495190    -0.22600
C917        C  0.69772189  0.40268092  0.99319998    -0.17900
C918        C  0.80382581  0.40956515  0.99502224    -0.17900
C919        C  0.80057659  0.59471926  0.49078345    -0.17900
C920        C  0.69474460  0.58944312  0.49233473    -0.17900
H921        H  0.72408820  0.31810032  0.03515790     0.15000
H922        H  0.78103955  0.32056143  0.03410453     0.15000
H923        H  0.71785307  0.68650417  0.51742357     0.15000
H924        H  0.77494055  0.68938015  0.51572257     0.15000
H925        H  0.64378010  0.44389239  0.46043382     0.13300
H926        H  0.64207351  0.54502959  0.46226972     0.13300
H927        H  0.85847720  0.45347044  0.97052382     0.13300
H928        H  0.85669054  0.55521431  0.96848187     0.13300
H929        H  0.74998715  0.45293131  0.97444399     0.26500
H930        H  0.74824215  0.54146254  0.47877887     0.26500
N931        N  0.99861359  0.92137102  0.48857393    -0.36300
N932        N  0.54441445  0.99732412  0.48601999    -0.56800
N933        N  0.99977635  0.07636990  0.48929555    -0.36200
N934        N  0.95356747  0.00078307  0.48817188    -0.56800
C935        C  0.52176097  0.89495629  0.47431353     0.27300
C936        C  0.97416651  0.89659602  0.47694367     0.27300
C937        C  0.52385828  0.10301430  0.47859226     0.27300
C938        C  0.97632034  0.10471512  0.47873777     0.27300
C939        C  0.56056208  0.95500399  0.49340319     0.36000
C940        C  0.56080925  0.03825645  0.49597789     0.36000
C941        C  0.93763146  0.95928075  0.49878586     0.36000
C942        C  0.93832676  0.04290427  0.49888533     0.36000
C943        C  0.51178221  0.85415446  0.45223640    -0.21500
C944        C  0.98187376  0.85529132  0.45399514    -0.21500
C945        C  0.51574749  0.14831359  0.46033279    -0.21500
C946        C  0.98580688  0.14892094  0.45967674    -0.21500
C947        C  0.58738970  0.96934350  0.50855021    -0.22600
C948        C  0.58762521  0.02220158  0.50969897    -0.22600
C949        C  0.91223245  0.97498380  0.51693374    -0.22600
C950        C  0.91267705  0.02798449  0.51705795    -0.22600
C951        C  0.55144123  0.90469618  0.48363911    -0.17900
C952        C  0.94533064  0.90822183  0.48920303    -0.17900
C953        C  0.94709099  0.09395079  0.49000695    -0.17900
C954        C  0.55264226  0.08953834  0.48875397    -0.17900
H955        H  0.52458220  0.82640703  0.43632570     0.15000
H956        H  0.96733315  0.82881144  0.43991574     0.15000
H957        H  0.52980988  0.17816699  0.44891907     0.15000
H958        H  0.97272024  0.17915283  0.44694192     0.15000
H959        H  0.60509626  0.94507409  0.51809332     0.13300
H960        H  0.60557808  0.04598070  0.51920011     0.13300
H961        H  0.89522939  0.95111946  0.52918689     0.13300
H962        H  0.89608720  0.05224164  0.52964286     0.13300
H963        H  0.99944661  0.95076016  0.50898551     0.21100
H964        H  0.99949277  0.04426889  0.50748098     0.26500
O965        O  0.64246992  0.18370809  0.41342860    -0.78100
C966        C  0.57482982  0.13060518  0.49109965     0.82900
O967        O  0.58743960  0.33613439  0.44806544    -0.79200
O968        O  0.59141856  0.25205607  0.07590853    -0.80700
O969        O  0.68619998  0.20563023  0.04228447    -0.80500
O970        O  0.68457935  0.19720759  0.44352514    -0.79200
Zn971      Zn  0.61106725  0.21013442  0.44794789     1.55700
O972        O  0.64696285  0.17247204  0.07141638    -0.80600
Cd973      Cd  0.67014997  0.23870598  0.49139865     1.59700
Cd974      Cd  0.61345109  0.31677407  0.49632871     1.59600
O975        O  0.68674767  0.31293246  0.48694405    -0.80500
O976        O  0.62671240  0.24239510  0.49339656    -1.91000
Cd977      Cd  0.61280595  0.20256514  0.03930468     1.59900
O978        O  0.64951629  0.36576410  0.49742251    -0.80500
O979        O  0.58416599  0.14434492  0.02416562    -0.79200
C980        C  0.58068283  0.30801639  0.41917433     0.83400
C981        C  0.67007879  0.18033396  0.41480553     0.83000
O982        O  0.58351276  0.15210560  0.46003715    -0.78100
C983        C  0.67431501  0.18064956  0.07005977     0.83800
O984        O  0.58894594  0.26140822  0.41747238    -0.78200
C985        C  0.67670663  0.35821454  0.49217207     0.84000
C986        C  0.58496340  0.29967814  0.07647247     0.84300
O987        O  0.59094504  0.32944662  0.04801518    -0.80600
O988        O  0.89541860  0.31819997  0.07368934    -0.78100
C989        C  0.82631648  0.36875136  0.49447225     0.82900
O990        O  0.84027211  0.16384290  0.04549834    -0.79200
O991        O  0.83638636  0.24199401  0.41636661    -0.80700
O992        O  0.93574978  0.28984507  0.44444138    -0.80500
O993        O  0.93589934  0.29320702  0.04371799    -0.79200
Zn994      Zn  0.86261286  0.29110857  0.04007677     1.55700
O995        O  0.89534860  0.31237880  0.41253407    -0.80600
Cd996      Cd  0.91987568  0.25662508  0.49516228     1.59700
Cd997      Cd  0.86290405  0.18013029  0.49421539     1.59600
O998        O  0.93611920  0.18295654  0.49717230    -0.80500
O999        O  0.87651048  0.25441989  0.49507841    -1.91000
Cd1000     Cd  0.86173507  0.29066436  0.44834178     1.59900
O1001       O  0.89853900  0.13010862  0.48963370    -0.80500
O1002       O  0.83562581  0.35290914  0.46192318    -0.79200
C1003       C  0.83356794  0.19380875  0.07329926     0.83400
C1004       C  0.92308418  0.31471536  0.07208183     0.83000
O1005       O  0.83479639  0.34886169  0.02628230    -0.78100
C1006       C  0.92291509  0.30851884  0.41482965     0.83800
O1007       O  0.84090180  0.24104915  0.07260034    -0.78200
C1008       C  0.92593033  0.13781910  0.49260686     0.84000
C1009       C  0.82803756  0.19535946  0.41856088     0.84300
O1010       O  0.83569375  0.16630512  0.44665902    -0.80600
O1011       O  0.82978678  0.65847250  0.02045117    -0.78100
C1012       C  0.91396994  0.69247618  0.06846836     0.82900
O1013       O  0.83100648  0.84565893  0.03217971    -0.79200
O1014       O  0.93238007  0.81966795  0.49428312    -0.80700
O1015       O  0.89164218  0.68670511  0.40920602    -0.80500
O1016       O  0.83051306  0.65316331  0.45617069    -0.79200
Zn1017     Zn  0.85503595  0.71953500  0.03357494     1.55700
O1018       O  0.93096675  0.71467567  0.44030305    -0.80600
Cd1019     Cd  0.85751986  0.71382505  0.44195821     1.59700
Cd1020     Cd  0.85863308  0.82762076  0.48455105     1.59600
O1021       O  0.83557089  0.76243302  0.40548923    -0.80500
O1022       O  0.87106560  0.75267827  0.48817493    -1.91000
Cd1023     Cd  0.91441807  0.74714205  0.49043576     1.59900
O1024       O  0.83712635  0.84070548  0.43115258    -0.80500
O1025       O  0.92833748  0.70632105  0.03865006    -0.79200
C1026       C  0.82226033  0.81634246  0.05980722     0.83400
C1027       C  0.82183527  0.63723664  0.48907031     0.83000
O1028       O  0.88638134  0.69647517  0.07029890    -0.78100
C1029       C  0.91909380  0.69281305  0.41139550     0.83800
O1030       O  0.83034299  0.76966465  0.06199453    -0.78200
C1031       C  0.83018331  0.81033460  0.40352570     0.84000
C1032       C  0.92315243  0.86561638  0.49006003     0.84300
O1033       O  0.89598940  0.87515957  0.48551416    -0.80600
O1034       O  0.60467988  0.68910102  0.06770231    -0.78100
C1035       C  0.67257006  0.63076456  0.49005354     0.82900
O1036       O  0.65901288  0.84019459  0.03649468    -0.79200
O1037       O  0.66487833  0.75915153  0.40807946    -0.80700
O1038       O  0.56514585  0.70501289  0.43731166    -0.80500
O1039       O  0.56442968  0.70794980  0.03487749    -0.79200
Zn1040     Zn  0.63789595  0.71294624  0.03359598     1.55700
O1041       O  0.60625610  0.68547352  0.40605895    -0.80600
Cd1042     Cd  0.58051685  0.74269734  0.48600143     1.59700
Cd1043     Cd  0.63681986  0.82162976  0.48500551     1.59600
O1044       O  0.56273140  0.81525925  0.48664355    -0.80500
O1045       O  0.62403035  0.74708149  0.48707346    -1.91000
Cd1046     Cd  0.63956280  0.71002449  0.44120454     1.59900
O1047       O  0.60006552  0.86914791  0.48073460    -0.80500
O1048       O  0.66473209  0.64711358  0.45687107    -0.79200
C1049       C  0.66615092  0.81172828  0.06525135     0.83400
C1050       C  0.57703215  0.69072765  0.06496719     0.83000
O1051       O  0.66399337  0.65208035  0.02123285    -0.78100
C1052       C  0.57858645  0.68629409  0.40833723     0.83800
O1053       O  0.65996285  0.76388800  0.06574116    -0.78200
C1054       C  0.57269181  0.86079788  0.48346795     0.84000
C1055       C  0.67226743  0.80638015  0.40926123     0.84300
O1056       O  0.66358926  0.83585372  0.43650190    -0.80600
C1057       C  0.98972672  0.36817240  0.20838291     0.02600
C1058       C  0.52059284  0.37246097  0.21012094     0.02600
C1059       C  0.53405581  0.37675170  0.24663509    -0.17900
C1060       C  0.51794999  0.37171704  0.28093322     0.02600
C1061       C  0.98727651  0.36866779  0.27893628     0.02600
C1062       C  0.97349259  0.36905993  0.24279309    -0.17900
H1063       H  0.95003276  0.36431368  0.24152908     0.04700
H1064       H  0.55764184  0.37727707  0.24840309     0.04700
C1065       C  0.98019911  0.63337839  0.20307616     0.02600
C1066       C  0.51104462  0.63184986  0.20093844     0.02600
C1067       C  0.52713741  0.62870254  0.23533158    -0.17900
C1068       C  0.51361945  0.63320598  0.27154898     0.02600
C1069       C  0.98279830  0.63448778  0.27371139     0.02600
C1070       C  0.96656291  0.63307326  0.23941224    -0.17900
H1071       H  0.94304276  0.63662789  0.24090396     0.04700
H1072       H  0.55071702  0.62806859  0.23386487     0.04700
C1073       C  0.72909451  0.87955194  0.20215172     0.02600
C1074       C  0.75984495  0.87989111  0.19800074     0.02600
C1075       C  0.77726354  0.88213479  0.23140518    -0.17900
C1076       C  0.76498268  0.88037901  0.26881844     0.02600
C1077       C  0.73417924  0.88076358  0.27288716     0.02600
C1078       C  0.71683368  0.88370251  0.23940213    -0.17900
H1079       H  0.69335730  0.88277099  0.24237962     0.04700
H1080       H  0.80072451  0.87946701  0.22834483     0.04700
C1081       C  0.76856006  0.13361367  0.21067352     0.02600
C1082       C  0.73853987  0.12233133  0.20768995     0.02600
C1083       C  0.72252449  0.11288492  0.24157298    -0.17900
C1084       C  0.73443300  0.12343528  0.27823533     0.02600
C1085       C  0.76459902  0.13484349  0.28113025     0.02600
C1086       C  0.78154961  0.13700485  0.24735479    -0.17900
H1087       H  0.80447264  0.14671302  0.24945501     0.04700
H1088       H  0.69965058  0.10345925  0.23918674     0.04700
C1089       C  0.67970307  0.80424194  0.13460241    -0.19900
C1090       C  0.68101926  0.83342130  0.10019699    -0.06500
C1091       C  0.69674097  0.88048764  0.10056307     0.14400
C1092       C  0.71072064  0.89627679  0.13488282    -0.20000
C1093       C  0.70985499  0.86614174  0.16876780    -0.06500
C1094       C  0.69403062  0.81938904  0.16845170     0.14300
C1095       C  0.69363193  0.78317729  0.20280492    -0.23300
H1096       H  0.66766305  0.76838117  0.13503900     0.15600
H1097       H  0.72348664  0.93134202  0.13489900     0.15700
C1098       C  0.70008160  0.91327427  0.06479064    -0.23300
H1099       H  0.68269015  0.74622216  0.19593311     0.05900
H1100       H  0.68151037  0.80047868  0.22722938     0.09100
H1101       H  0.71623800  0.77412036  0.21197355     0.09100
H1102       H  0.67847732  0.92772963  0.05533091     0.09100
H1103       H  0.71022254  0.89036417  0.04131759     0.09100
H1104       H  0.71419863  0.94725191  0.07006076     0.05900
C1105       C  0.72554592  0.81585597  0.32460938    -0.19900
C1106       C  0.71976661  0.86530596  0.31006611    -0.06500
C1107       C  0.69952704  0.89680424  0.32985404     0.14400
C1108       C  0.68542511  0.87759414  0.36327484    -0.20000
C1109       C  0.69055956  0.82732191  0.37703506    -0.06500
C1110       C  0.71168543  0.79673380  0.35790388     0.14300
C1111       C  0.72035997  0.74415901  0.37261923    -0.23300
H1112       H  0.74067829  0.79137761  0.30917615     0.15600
H1113       H  0.66943769  0.90130216  0.37785526     0.15700
C1114       C  0.69249156  0.95039013  0.31579251    -0.23300
H1115       H  0.73918877  0.72836365  0.35630498     0.05900
H1116       H  0.70211245  0.71657088  0.36930913     0.09100
H1117       H  0.72681137  0.74660037  0.40351502     0.09100
H1118       H  0.68246731  0.94897166  0.28666711     0.09100
H1119       H  0.71251283  0.97410996  0.31437084     0.09100
H1120       H  0.67689979  0.97003957  0.33538149     0.05900
C1121       C  0.56617001  0.62885692  0.11797700    -0.19900
C1122       C  0.55909582  0.67443467  0.09828559    -0.06500
C1123       C  0.53616191  0.70559573  0.11224127     0.14400
C1124       C  0.52115118  0.69045786  0.14566049    -0.20000
C1125       C  0.52715603  0.64365961  0.16447976    -0.06500
C1126       C  0.55016974  0.61251254  0.15043879     0.14300
C1127       C  0.55842774  0.56184734  0.16868998    -0.23300
H1128       H  0.58400395  0.60532020  0.10753437     0.15600
H1129       H  0.00502788  0.71614750  0.15774775     0.15700
C1130       C  0.52822166  0.75610467  0.09324699    -0.23300
H1131       H  0.55913966  0.53175529  0.14613399     0.05900
H1132       H  0.54277147  0.54885781  0.19112617     0.09100
H1133       H  0.58041172  0.56505279  0.18181577     0.09100
H1134       H  0.51991222  0.74927421  0.06357789     0.09100
H1135       H  0.54761084  0.78162210  0.09193826     0.09100
H1136       H  0.01084214  0.77659150  0.10942335     0.05900
C1137       C  0.56464148  0.70074357  0.34114933    -0.19900
C1138       C  0.56200005  0.67001526  0.37423494    -0.06500
C1139       C  0.54413384  0.62587367  0.37360055     0.14400
C1140       C  0.52973162  0.61284203  0.33907820    -0.20000
C1141       C  0.53209272  0.64416187  0.30587948    -0.06500
C1142       C  0.54945419  0.68927206  0.30727761     0.14300
C1143       C  0.55058761  0.72762096  0.27430983    -0.23300
H1144       H  0.57812074  0.73499882  0.34225853     0.15600
H1145       H  0.51589796  0.57904961  0.33823631     0.15700
C1146       C  0.54037506  0.59273996  0.40908431    -0.23300
H1147       H  0.56265859  0.76301403  0.28239875     0.05900
H1148       H  0.52817998  0.73931329  0.26601254     0.09100
H1149       H  0.56191340  0.71101403  0.24896623     0.09100
H1150       H  0.53063836  0.61580829  0.43276062     0.09100
H1151       H  0.56187245  0.57774097  0.41855579     0.09100
H1152       H  0.52582008  0.55944563  0.40346868     0.05900
C1153       C  0.80057578  0.87768999  0.36912897    -0.19900
C1154       C  0.81555675  0.83047427  0.36780419    -0.06500
C1155       C  0.81644524  0.80352707  0.33199175     0.14400
C1156       C  0.80063795  0.82230180  0.30024161    -0.20000
C1157       C  0.78446618  0.86790038  0.30226045    -0.06500
C1158       C  0.78555580  0.89715474  0.33667885     0.14300
C1159       C  0.77184018  0.94951781  0.33977902    -0.23300
H1160       H  0.80048008  0.89970165  0.39568773     0.15600
H1161       H  0.80012213  0.80015121  0.27374096     0.15700
C1162       C  0.83425413  0.75530729  0.32610143    -0.23300
H1163       H  0.78858142  0.97786664  0.34874745     0.05900
H1164       H  0.75424925  0.94866284  0.36185258     0.09100
H1165       H  0.76281051  0.96306338  0.31182962     0.09100
H1166       H  0.82513326  0.72308364  0.34345017     0.09100
H1167       H  0.85728441  0.76247137  0.33429908     0.09100
H1168       H  0.83418995  0.74274816  0.29541722     0.05900
C1169       C  0.76897462  0.81875944  0.14427435    -0.19900
C1170       C  0.77418005  0.86729536  0.16026467    -0.06500
C1171       C  0.79313760  0.90158035  0.14066583     0.14400
C1172       C  0.80740065  0.88546233  0.10651777    -0.20000
C1173       C  0.80306574  0.83580268  0.09148206    -0.06500
C1174       C  0.78241874  0.80305966  0.10988580     0.14300
C1175       C  0.77364689  0.75181093  0.09314300    -0.23300
H1176       H  0.75445917  0.79244992  0.15919686     0.15600
H1177       H  0.82280516  0.91101099  0.09240535     0.15700
C1178       C  0.79828928  0.95502544  0.15574922    -0.23300
H1179       H  0.75495023  0.73456268  0.10902045     0.05900
H1180       H  0.79183126  0.72386010  0.09491545     0.09100
H1181       H  0.76683065  0.75719861  0.06260070     0.09100
H1182       H  0.80804721  0.95331041  0.18505324     0.09100
H1183       H  0.77728250  0.97604233  0.15716695     0.09100
H1184       H  0.81342836  0.97701492  0.13684975     0.05900
C1185       C  0.92933777  0.63100317  0.35849494    -0.19900
C1186       C  0.93722773  0.67590718  0.37834247    -0.06500
C1187       C  0.96024650  0.70653155  0.36368176     0.14400
C1188       C  0.97423133  0.69204504  0.32948039    -0.20000
C1189       C  0.96721205  0.64620274  0.31042420    -0.06500
C1190       C  0.94432615  0.61525407  0.32516092     0.14300
C1191       C  0.93495105  0.56571047  0.30656937    -0.23300
H1192       H  0.91143738  0.60771809  0.36925652     0.15600
H1193       H  0.49058300  0.71728408  0.31715705     0.15700
C1194       C  0.96946160  0.75580733  0.38272377    -0.23300
H1195       H  0.93386285  0.53507529  0.32892883     0.05900
H1196       H  0.95010301  0.55267818  0.28363881     0.09100
H1197       H  0.91289248  0.57055420  0.29394150     0.09100
H1198       H  0.97823671  0.74720027  0.41194277     0.09100
H1199       H  0.95052654  0.78222703  0.38474990     0.09100
H1200       H  0.48690806  0.77590476  0.36623460     0.05900
C1201       C  0.94301440  0.62691575  0.10446749    -0.19900
C1202       C  0.92981325  0.67559533  0.10320013    -0.06500
C1203       C  0.93202357  0.70873514  0.13524254     0.14400
C1204       C  0.94789672  0.69293993  0.16765628    -0.20000
C1205       C  0.96186704  0.64494725  0.16876699    -0.06500
C1206       C  0.95880083  0.61084322  0.13728577     0.14300
C1207       C  0.97123322  0.55722732  0.13883992    -0.23300
H1208       H  0.94076732  0.60142632  0.07992410     0.15600
H1209       H  0.95026784  0.71889788  0.19192297     0.15700
C1210       C  0.91837794  0.76152822  0.13478166    -0.23300
H1211       H  0.96569713  0.53495144  0.11250468     0.05900
H1212       H  0.96225849  0.53635243  0.16430658     0.09100
H1213       H  0.99527008  0.55859451  0.14115844     0.09100
H1214       H  0.89439653  0.75815082  0.13155442     0.09100
H1215       H  0.92731419  0.78436472  0.11025066     0.09100
H1216       H  0.92281128  0.78285854  0.16191933     0.05900
C1217       C  0.79139072  0.11147049  0.14741338    -0.19900
C1218       C  0.78577682  0.14839185  0.17596753    -0.06500
C1219       C  0.79549804  0.19938225  0.17027158     0.14400
C1220       C  0.81129306  0.21169323  0.13706040    -0.20000
C1221       C  0.81709507  0.17525850  0.10801201    -0.06500
C1222       C  0.80684734  0.12411331  0.11338823     0.14300
C1223       C  0.81178832  0.08266352  0.08378345    -0.23300
H1224       H  0.78345507  0.07261879  0.15176892     0.15600
H1225       H  0.81851265  0.25117535  0.13372893     0.15700
C1226       C  0.78853300  0.24277880  0.19752733    -0.23300
H1227       H  0.80173819  0.04561161  0.09268151     0.05900
H1228       H  0.83550635  0.07604588  0.07989757     0.09100
H1229       H  0.80176237  0.09404455  0.05581950     0.09100
H1230       H  0.77291029  0.23145071  0.22024790     0.09100
H1231       H  0.77828118  0.27490524  0.18118722     0.09100
H1232       H  0.80886692  0.25689211  0.21122600     0.05900
C1233       C  0.79241351  0.21263960  0.36653495    -0.19900
C1234       C  0.80916301  0.17608559  0.38669964    -0.06500
C1235       C  0.80945415  0.12459756  0.37333440     0.14400
C1236       C  0.79450257  0.11218602  0.33900886    -0.20000
C1237       C  0.77866014  0.14944841  0.31834492    -0.06500
C1238       C  0.77732914  0.20019786  0.33268804     0.14300
C1239       C  0.76093719  0.24216105  0.31195766    -0.23300
H1240       H  0.79167012  0.25194362  0.37684667     0.15600
H1241       H  0.79529141  0.07324981  0.32798266     0.15700
C1242       C  0.82606674  0.08293700  0.39417418    -0.23300
H1243       H  0.76254384  0.27957499  0.32720076     0.05900
H1244       H  0.73761367  0.23229529  0.31006780     0.09100
H1245       H  0.77005919  0.24763876  0.28267525     0.09100
H1246       H  0.81712176  0.07779674  0.42380212     0.09100
H1247       H  0.84950065  0.09328985  0.39579795     0.09100
H1248       H  0.82432977  0.04538790  0.37914789     0.05900
C1249       C  0.95381283  0.39080281  0.15702021    -0.19900
C1250       C  0.97382810  0.35510279  0.17222547    -0.06500
C1251       C  0.97659200  0.30641499  0.15441514     0.14400
C1252       C  0.96098839  0.29623451  0.12052309    -0.20000
C1253       C  0.94084348  0.33155247  0.10545529    -0.06500
C1254       C  0.93702535  0.37941014  0.12407269     0.14300
C1255       C  0.91577481  0.41878448  0.10896653    -0.23300
H1256       H  0.95123235  0.42763632  0.17120449     0.15600
H1257       H  0.96331696  0.25888581  0.10698302     0.15700
C1258       C  0.49421127  0.26294596  0.17145423    -0.23300
H1259       H  0.91661993  0.45494964  0.12593515     0.05900
H1260       H  0.89323166  0.40354558  0.11083224     0.09100
H1261       H  0.92100835  0.42827319  0.07837973     0.09100
H1262       H  0.50396079  0.27239813  0.19981037     0.09100
H1263       H  0.51184909  0.25209498  0.15105111     0.09100
H1264       H  0.47988177  0.22905010  0.17613720     0.05900
C1265       C  0.95994554  0.30432303  0.31745154    -0.19900
C1266       C  0.96983695  0.35511848  0.31359571    -0.06500
C1267       C  0.96378599  0.39107790  0.34295910     0.14400
C1268       C  0.94913476  0.37476717  0.37656174    -0.20000
C1269       C  0.94014950  0.32354297  0.38084076    -0.06500
C1270       C  0.94529185  0.28800353  0.35087153     0.14300
C1271       C  0.93515786  0.23297027  0.35410328    -0.23300
H1272       H  0.96398492  0.27723390  0.29431476     0.15600
H1273       H  0.94417604  0.40215019  0.39919091     0.15700
C1274       C  0.47137349  0.44694036  0.33780859    -0.23300
H1275       H  0.94108225  0.21032572  0.32807334     0.05900
H1276       H  0.91109549  0.23181381  0.35736482     0.09100
H1277       H  0.94538360  0.21437780  0.37968772     0.09100
H1278       H  0.46072106  0.46164098  0.31118520     0.09100
H1279       H  0.49515368  0.45194238  0.33475807     0.09100
H1280       H  0.46404298  0.47033465  0.36279978     0.05900
C1281       C  0.67710931  0.18102330  0.34451503    -0.19900
C1282       C  0.68525110  0.16027956  0.38035174    -0.06500
C1283       C  0.70726465  0.12244206  0.38195021     0.14400
C1284       C  0.72095334  0.10706296  0.34745076    -0.20000
C1285       C  0.71449537  0.13106264  0.31187573    -0.06500
C1286       C  0.69163837  0.16786909  0.31037791     0.14300
C1287       C  0.68358474  0.19673958  0.27380490    -0.23300
H1288       H  0.66000770  0.20978424  0.34350350     0.15600
H1289       H  0.73775531  0.07784970  0.34848830     0.15700
C1290       C  0.71629964  0.09826926  0.41974122    -0.23300
H1291       H  0.66824983  0.22880429  0.27972340     0.05900
H1292       H  0.67244955  0.17085369  0.25320875     0.09100
H1293       H  0.70323973  0.21371709  0.26002074     0.09100
H1294       H  0.69715029  0.07999359  0.43386243     0.09100
H1295       H  0.72548239  0.12802917  0.43914962     0.09100
H1296       H  0.73324153  0.06829555  0.41549761     0.05900
C1297       C  0.69228751  0.11259280  0.11575381    -0.19900
C1298       C  0.69229841  0.16430362  0.10346911    -0.06500
C1299       C  0.70727682  0.20128873  0.12565915     0.14400
C1300       C  0.72144487  0.18605456  0.15960739    -0.20000
C1301       C  0.72235966  0.13440632  0.17139904    -0.06500
C1302       C  0.70758424  0.09706904  0.14926375     0.14300
C1303       C  0.70820610  0.04116023  0.16072960    -0.23300
H1304       H  0.68042075  0.08436299  0.09900909     0.15600
H1305       H  0.73179320  0.21489639  0.17736531     0.15700
C1306       C  0.70770621  0.25731591  0.11431511    -0.23300
H1307       H  0.69607216  0.01698469  0.13980103     0.05900
H1308       H  0.69809072  0.03586488  0.18964218     0.09100
H1309       H  0.73108915  0.02747205  0.16174960     0.09100
H1310       H  0.68510167  0.27218625  0.11188102     0.09100
H1311       H  0.71907319  0.26164240  0.08621834     0.09100
H1312       H  0.71949026  0.28120213  0.13578929     0.05900
C1313       C  0.55080398  0.29060597  0.36115494    -0.19900
C1314       C  0.56307257  0.32770519  0.38586245    -0.06500
C1315       C  0.56023803  0.38044679  0.37569267     0.14400
C1316       C  0.54564639  0.39402635  0.34116195    -0.20000
C1317       C  0.53363200  0.35644506  0.31682882    -0.06500
C1318       C  0.53695941  0.30399383  0.32662595     0.14300
C1319       C  0.02732084  0.26063960  0.30067372    -0.23300
H1320       H  0.55270618  0.25002238  0.36810228     0.15600
H1321       H  0.54405112  0.43412052  0.33278076     0.15700
C1322       C  0.57313973  0.42250753  0.40012576    -0.23300
H1323       H  0.01141743  0.23591449  0.31630208     0.05900
H1324       H  0.04651273  0.23686863  0.29279888     0.09100
H1325       H  0.01715790  0.27393539  0.27337537     0.09100
H1326       H  0.59704696  0.41698882  0.40270021     0.09100
H1327       H  0.56301483  0.42200789  0.42930965     0.09100
H1328       H  0.56929794  0.46118514  0.38729666     0.05900
C1329       C  0.55256255  0.36467803  0.10785125    -0.19900
C1330       C  0.57027828  0.32073055  0.11145978    -0.06500
C1331       C  0.57393430  0.29821580  0.14865947     0.14400
C1332       C  0.55856499  0.31825406  0.18016088    -0.20000
C1333       C  0.53946622  0.36011948  0.17613966    -0.06500
C1334       C  0.53739310  0.38499116  0.13971843     0.14300
C1335       C  0.01989247  0.43327389  0.13347294    -0.23300
H1336       H  0.55024500  0.38317097  0.07984344     0.15600
H1337       H  0.56036566  0.29919582  0.20803298     0.15700
C1338       C  0.59399675  0.25316450  0.15603524    -0.23300
H1339       H  0.03407049  0.46345636  0.12077555     0.05900
H1340       H  0.01058336  0.44857245  0.16071190     0.09100
H1341       H  0.00198099  0.42558281  0.11275032     0.09100
H1342       H  0.61629020  0.26232228  0.14552927     0.09100
H1343       H  0.58560548  0.21827258  0.14141574     0.09100
H1344       H  0.59564759  0.24372238  0.18734086     0.05900
N1345       N  0.75054582  0.42121306  0.49277126    -0.36300
N1346       N  0.70366352  0.49644457  0.99431309    -0.56800
N1347       N  0.74786085  0.57681954  0.99225204    -0.36200
N1348       N  0.79429060  0.50155066  0.49235859    -0.56800
C1349       C  0.72723349  0.39236453  0.50341142     0.27300
C1350       C  0.77481909  0.39533707  0.50399062     0.27300
C1351       C  0.72373083  0.60503237  0.99971993     0.27300
C1352       C  0.77119434  0.60754340  0.99853239     0.27300
C1353       C  0.68810539  0.45381620  0.48548180     0.36000
C1354       C  0.68678323  0.53761749  0.98562933     0.36000
C1355       C  0.81186314  0.46068879  0.48660847     0.36000
C1356       C  0.81040196  0.54391138  0.98503486     0.36000
C1357       C  0.73699795  0.34849996  0.52249195    -0.21500
C1358       C  0.76688364  0.34993124  0.52227036    -0.21500
C1359       C  0.73187880  0.65426951  0.01077941    -0.21500
C1360       C  0.76174908  0.65583535  0.00991490    -0.21500
C1361       C  0.66110351  0.46830896  0.97086708    -0.22600
C1362       C  0.66017007  0.52129266  0.97149479    -0.22600
C1363       C  0.83948321  0.47703729  0.47594055    -0.22600
C1364       C  0.83855754  0.52995482  0.47495369    -0.22600
C1365       C  0.69772185  0.40268078  0.49320019    -0.17900
C1366       C  0.80382565  0.40956438  0.49502445    -0.17900
C1367       C  0.80057650  0.59471999  0.99078291    -0.17900
C1368       C  0.69474451  0.58944328  0.99233393    -0.17900
H1369       H  0.72408750  0.31809970  0.53515827     0.15000
H1370       H  0.78103893  0.32056064  0.53410626     0.15000
H1371       H  0.71785278  0.68650440  0.01742273     0.15000
H1372       H  0.77494021  0.68938066  0.01572212     0.15000
H1373       H  0.64377980  0.44389229  0.96043429     0.13300
H1374       H  0.64207328  0.54502953  0.96226968     0.13300
H1375       H  0.85847726  0.45346919  0.47052676     0.13300
H1376       H  0.85669069  0.55521294  0.46848356     0.13300
H1377       H  0.74998732  0.45293080  0.47444539     0.26500
H1378       H  0.74824213  0.54146230  0.97877847     0.26500
N1379       N  0.99861370  0.92137096  0.98857433    -0.36300
N1380       N  0.54441438  0.99732431  0.98601916    -0.56800
N1381       N  0.99977613  0.07637003  0.98929608    -0.36200
N1382       N  0.95356750  0.00078295  0.98817263    -0.56800
C1383       C  0.52176082  0.89495649  0.97431260     0.27300
C1384       C  0.97416665  0.89659588  0.97694405     0.27300
C1385       C  0.52385804  0.10301470  0.97859308     0.27300
C1386       C  0.97632009  0.10471510  0.97873822     0.27300
C1387       C  0.56056205  0.95500410  0.99340206     0.36000
C1388       C  0.56080920  0.03825652  0.99597728     0.36000
C1389       C  0.93763160  0.95928050  0.99878661     0.36000
C1390       C  0.93832661  0.04290409  0.99888586     0.36000
C1391       C  0.51178198  0.85415488  0.95223528    -0.21500
C1392       C  0.98187392  0.85529122  0.95399549    -0.21500
C1393       C  0.51574718  0.14831439  0.96033425    -0.21500
C1394       C  0.98580657  0.14892087  0.95967701    -0.21500
C1395       C  0.58738972  0.96934351  0.00854898    -0.22600
C1396       C  0.58762524  0.02220156  0.00969802    -0.22600
C1397       C  0.91223249  0.97498341  0.01693435    -0.22600
C1398       C  0.91267687  0.02798413  0.01705833    -0.22600
C1399       C  0.55144111  0.90469627  0.98363809    -0.17900
C1400       C  0.94533082  0.90822163  0.98920351    -0.17900
C1401       C  0.94709077  0.09395070  0.99000747    -0.17900
C1402       C  0.55264208  0.08953856  0.98875428    -0.17900
H1403       H  0.52458195  0.82640760  0.93632440     0.15000
H1404       H  0.96733334  0.82881128  0.93991608     0.15000
H1405       H  0.52980956  0.17816800  0.94892081     0.15000
H1406       H  0.97271990  0.17915272  0.94694216     0.15000
H1407       H  0.60509629  0.94507409  0.01809202     0.13300
H1408       H  0.60557808  0.04598062  0.01919933     0.13300
H1409       H  0.89522945  0.95111896  0.02918743     0.13300
H1410       H  0.89608683  0.05224117  0.02964297     0.13300
H1411       H  0.99944670  0.95075988  0.00898584     0.21100
H1412       H  0.99949263  0.04426920  0.00748168     0.26500
O1413       O  0.64247034  0.18370817  0.91342907    -0.78100
C1414       C  0.57482966  0.13060537  0.99110018     0.82900
O1415       O  0.58743965  0.33613389  0.94806533    -0.79200
O1416       O  0.59141825  0.25205580  0.57590802    -0.80700
O1417       O  0.68620012  0.20563036  0.54228403    -0.80500
O1418       O  0.68457971  0.19720656  0.94352593    -0.79200
Zn1419     Zn  0.61106755  0.21013410  0.94794839     1.55700
O1420       O  0.64696307  0.17247232  0.57141617    -0.80600
Cd1421     Cd  0.67015011  0.23870569  0.99139906     1.59700
Cd1422     Cd  0.61345109  0.31677398  0.99632888     1.59600
O1423       O  0.68674781  0.31293233  0.98694442    -0.80500
O1424       O  0.62671251  0.24239503  0.99339696    -1.91000
Cd1425     Cd  0.61280606  0.20256501  0.53930432     1.59900
O1426       O  0.64951636  0.36576397  0.99742256    -0.80500
O1427       O  0.58416660  0.14434418  0.52416500    -0.79200
C1428       C  0.58068297  0.30801562  0.91917432     0.83400
C1429       C  0.67007919  0.18033347  0.91480611     0.83000
O1430       O  0.58351314  0.15210511  0.96003768    -0.78100
C1431       C  0.67431525  0.18064968  0.57005942     0.83800
O1432       O  0.58894615  0.26140749  0.91747270    -0.78200
C1433       C  0.67670672  0.35821447  0.99217220     0.84000
C1434       C  0.58496323  0.29967796  0.57647209     0.84300
O1435       O  0.59094512  0.32944658  0.54801498    -0.80600
O1436       O  0.89541879  0.31819840  0.57368951    -0.78100
C1437       C  0.82631678  0.36875229  0.99447052     0.82900
O1438       O  0.84027231  0.16384194  0.54549786    -0.79200
O1439       O  0.83638692  0.24199393  0.91636642    -0.80700
O1440       O  0.93575012  0.28984443  0.94444183    -0.80500
O1441       O  0.93589942  0.29320675  0.54371733    -0.79200
Zn1442     Zn  0.86261300  0.29110751  0.54007700     1.55700
O1443       O  0.89534915  0.31237738  0.91253373    -0.80600
Cd1444     Cd  0.91987575  0.25662517  0.99516285     1.59700
Cd1445     Cd  0.86290403  0.18013070  0.99421583     1.59600
O1446       O  0.93611908  0.18295646  0.99717298    -0.80500
O1447       O  0.87651055  0.25442028  0.99507856    -1.91000
Cd1448     Cd  0.86173550  0.29066434  0.94834147     1.59900
O1449       O  0.89853881  0.13010871  0.98963437    -0.80500
O1450       O  0.83562641  0.35290982  0.96192167    -0.79200
C1451       C  0.83356813  0.19380764  0.57329884     0.83400
C1452       C  0.92308437  0.31471445  0.57208150     0.83000
O1453       O  0.83479640  0.34886063  0.52628380    -0.78100
C1454       C  0.92291561  0.30851746  0.91482969     0.83800
O1455       O  0.84090199  0.24104800  0.57260008    -0.78200
C1456       C  0.92593015  0.13781906  0.99260750     0.84000
C1457       C  0.82803818  0.19535938  0.91856071     0.84300
O1458       O  0.83569418  0.16630518  0.94665903    -0.80600
O1459       O  0.82978717  0.65847136  0.52045175    -0.78100
C1460       C  0.91397045  0.69247680  0.56846895     0.82900
O1461       O  0.83100642  0.84565766  0.53217995    -0.79200
O1462       O  0.93238011  0.81966772  0.99428318    -0.80700
O1463       O  0.89164161  0.68670746  0.90920469    -0.80500
O1464       O  0.83051297  0.65316404  0.95617015    -0.79200
Zn1465     Zn  0.85503629  0.71953407  0.53357546     1.55700
O1466       O  0.93096631  0.71467633  0.94030229    -0.80600
Cd1467     Cd  0.85751944  0.71382628  0.94195774     1.59700
Cd1468     Cd  0.85863311  0.82762166  0.98455091     1.59600
O1469       O  0.83557010  0.76243453  0.90548962    -0.80500
O1470       O  0.87106539  0.75267902  0.98817450    -1.91000
Cd1471     Cd  0.91441784  0.74714203  0.99043536     1.59900
O1472       O  0.83712634  0.84070710  0.93115270    -0.80500
O1473       O  0.92833787  0.70632215  0.53865070    -0.79200
C1474       C  0.82226044  0.81634129  0.55980764     0.83400
C1475       C  0.82183507  0.63723752  0.98906976     0.83000
O1476       O  0.88638180  0.69647482  0.57029947    -0.78100
C1477       C  0.91909327  0.69281475  0.91139436     0.83800
O1478       O  0.83034322  0.76966356  0.56199509    -0.78200
C1479       C  0.83018289  0.81033620  0.90352603     0.84000
C1480       C  0.92315258  0.86561626  0.99006017     0.84300
O1481       O  0.89598961  0.87515972  0.98551414    -0.80600
O1482       O  0.60468048  0.68910101  0.56770286    -0.78100
C1483       C  0.67256995  0.63076464  0.99005253     0.82900
O1484       O  0.65901304  0.84019481  0.53649516    -0.79200
O1485       O  0.66487839  0.75915261  0.90807878    -0.80700
O1486       O  0.56514592  0.70501255  0.93731109    -0.80500
O1487       O  0.56443021  0.70794963  0.53487812    -0.79200
Zn1488     Zn  0.63789644  0.71294663  0.53359671     1.55700
O1489       O  0.60625621  0.68547349  0.90605827    -0.80600
Cd1490     Cd  0.58051665  0.74269732  0.98600078     1.59700
Cd1491     Cd  0.63681969  0.82162975  0.98500506     1.59600
O1492       O  0.56273113  0.81525922  0.98664254    -0.80500
O1493       O  0.62403019  0.74708145  0.98707275    -1.91000
Cd1494     Cd  0.63956294  0.71002503  0.94120366     1.59900
O1495       O  0.60006534  0.86914775  0.98073409    -0.80500
O1496       O  0.66473260  0.64711446  0.95687001    -0.79200
C1497       C  0.66615117  0.81172871  0.56525192     0.83400
C1498       C  0.57703276  0.69072747  0.56496776     0.83000
O1499       O  0.66399410  0.65208105  0.52123384    -0.78100
C1500       C  0.57858655  0.68629372  0.90833671     0.83800
O1501       O  0.65996318  0.76388843  0.56574192    -0.78200
C1502       C  0.57269161  0.86079783  0.98346710     0.84000
C1503       C  0.67226748  0.80638123  0.90926093     0.84300
O1504       O  0.66358921  0.83585443  0.93650174    -0.80600
C1505       C  0.98972679  0.36817166  0.70838247     0.02600
C1506       C  0.52059281  0.37246042  0.71012080     0.02600
C1507       C  0.53405567  0.37675107  0.74663503    -0.17900
C1508       C  0.51794984  0.37171564  0.78093312     0.02600
C1509       C  0.98727655  0.36866614  0.77893587     0.02600
C1510       C  0.97349262  0.36905804  0.74279267    -0.17900
H1511       H  0.95003285  0.36431092  0.74152862     0.04700
H1512       H  0.55764169  0.37727705  0.74840310     0.04700
C1513       C  0.98019985  0.63337856  0.70307611     0.02600
C1514       C  0.51104484  0.63184821  0.70093835     0.02600
C1515       C  0.52713747  0.62870053  0.73533159    -0.17900
C1516       C  0.51361941  0.63320445  0.77154890     0.02600
C1517       C  0.98279880  0.63448838  0.77371130     0.02600
C1518       C  0.96656354  0.63307380  0.73941208    -0.17900
H1519       H  0.94304339  0.63662879  0.74090365     0.04700
H1520       H  0.55071708  0.62806621  0.73386502     0.04700
C1521       C  0.72909484  0.87955385  0.70215175     0.02600
C1522       C  0.75984528  0.87989223  0.69800087     0.02600
C1523       C  0.77726380  0.88213587  0.73140534    -0.17900
C1524       C  0.76498281  0.88038067  0.76881856     0.02600
C1525       C  0.73417936  0.88076579  0.77288719     0.02600
C1526       C  0.71683391  0.88370508  0.73940208    -0.17900
H1527       H  0.69335751  0.88277404  0.74237944     0.04700
H1528       H  0.80072476  0.87946760  0.72834505     0.04700
C1529       C  0.76856036  0.13361301  0.71067331     0.02600
C1530       C  0.73854011  0.12233096  0.70768983     0.02600
C1531       C  0.72252474  0.11288497  0.74157301    -0.17900
C1532       C  0.73443331  0.12343570  0.77823531     0.02600
C1533       C  0.76459938  0.13484367  0.78113008     0.02600
C1534       C  0.78154992  0.13700436  0.74735457    -0.17900
H1535       H  0.80447300  0.14671226  0.74945470     0.04700
H1536       H  0.69965086  0.10345908  0.73918690     0.04700
C1537       C  0.67970335  0.80424310  0.63460306    -0.19900
C1538       C  0.68101960  0.83342197  0.60019740    -0.06500
C1539       C  0.69674155  0.88048805  0.60056300     0.14400
C1540       C  0.71072123  0.89627763  0.63488261    -0.20000
C1541       C  0.70985536  0.86614325  0.66876792    -0.06500
C1542       C  0.69403087  0.81939068  0.66845225     0.14300
C1543       C  0.69363198  0.78317965  0.70280590    -0.23300
H1544       H  0.66766325  0.76838242  0.63503994     0.15600
H1545       H  0.72348738  0.93134269  0.63489847     0.15700
C1546       C  0.70008245  0.91327385  0.56479019    -0.23300
H1547       H  0.68269023  0.74622436  0.69593445     0.05900
H1548       H  0.68151026  0.80048160  0.72722998     0.09100
H1549       H  0.71623801  0.77412292  0.71197493     0.09100
H1550       H  0.67847827  0.92772965  0.55533030     0.09100
H1551       H  0.71022317  0.89036295  0.54131742     0.09100
H1552       H  0.71419981  0.94725117  0.57005991     0.05900
C1553       C  0.72554594  0.81585788  0.82460919    -0.19900
C1554       C  0.71976658  0.86530792  0.81006604    -0.06500
C1555       C  0.69952702  0.89680606  0.82985416     0.14400
C1556       C  0.68542516  0.87759573  0.86327495    -0.20000
C1557       C  0.69055968  0.82732344  0.87703500    -0.06500
C1558       C  0.71168568  0.79673565  0.85790383     0.14300
C1559       C  0.72036073  0.74416127  0.87261952    -0.23300
H1560       H  0.74067830  0.79137961  0.80917586     0.15600
H1561       H  0.66943771  0.90130358  0.87785545     0.15700
C1562       C  0.69249141  0.95039199  0.81579282    -0.23300
H1563       H  0.73918963  0.72836625  0.85630529     0.05900
H1564       H  0.70211347  0.71657254  0.86930976     0.09100
H1565       H  0.72681225  0.74660326  0.90351525     0.09100
H1566       H  0.68246692  0.94897352  0.78666760     0.09100
H1567       H  0.71251263  0.97411188  0.81437086     0.09100
H1568       H  0.67689979  0.97004131  0.83538203     0.05900
C1569       C  0.56617089  0.62885663  0.61797757    -0.19900
C1570       C  0.55909649  0.67443424  0.59828611    -0.06500
C1571       C  0.53616230  0.70559480  0.61224154     0.14400
C1572       C  0.52115153  0.69045662  0.64566064    -0.20000
C1573       C  0.52715643  0.64365831  0.66447983    -0.06500
C1574       C  0.55017038  0.61251165  0.65043899     0.14300
C1575       C  0.55842832  0.56184620  0.66868983    -0.23300
H1576       H  0.58400507  0.60532033  0.60753514     0.15600
H1577       H  0.00502864  0.71614754  0.65774806     0.15700
C1578       C  0.52822173  0.75610348  0.59324709    -0.23300
H1579       H  0.55914051  0.53175452  0.64613357     0.05900
H1580       H  0.54277185  0.54885622  0.69112564     0.09100
H1581       H  0.58041218  0.56505157  0.68181597     0.09100
H1582       H  0.51991234  0.74927267  0.56357798     0.09100
H1583       H  0.54761072  0.78162135  0.59193835     0.09100
H1584       H  0.01084260  0.77659144  0.60942367     0.05900
C1585       C  0.56464160  0.70074240  0.84114880    -0.19900
C1586       C  0.56200012  0.67001451  0.87423458    -0.06500
C1587       C  0.54413384  0.62587298  0.87360049     0.14400
C1588       C  0.52973144  0.61284123  0.83907830    -0.20000
C1589       C  0.53209263  0.64416064  0.80587938    -0.06500
C1590       C  0.54945429  0.68927063  0.80727717     0.14300
C1591       C  0.55058793  0.72761908  0.77430911    -0.23300
H1592       H  0.57812096  0.73499754  0.84225777     0.15600
H1593       H  0.51589766  0.57904894  0.83823665     0.15700
C1594       C  0.54037541  0.59273922  0.90908428    -0.23300
H1595       H  0.56265927  0.76301187  0.78239770     0.05900
H1596       H  0.52818037  0.73931196  0.76601190     0.09100
H1597       H  0.56191352  0.71101161  0.74896557     0.09100
H1598       H  0.53063879  0.61580739  0.93276069     0.09100
H1599       H  0.56187293  0.57774039  0.91855552     0.09100
H1600       H  0.52582051  0.55944476  0.90346881     0.05900
C1601       C  0.80057541  0.87769161  0.86912937    -0.19900
C1602       C  0.81555641  0.83047593  0.86780458    -0.06500
C1603       C  0.81644506  0.80352874  0.83199216     0.14400
C1604       C  0.80063796  0.82230352  0.80024190    -0.20000
C1605       C  0.78446618  0.86790208  0.80226070    -0.06500
C1606       C  0.78555552  0.89715632  0.83667917     0.14300
C1607       C  0.77183952  0.94951908  0.83977946    -0.23300
H1608       H  0.80047958  0.89970318  0.89568818     0.15600
H1609       H  0.80012226  0.80015295  0.77374123     0.15700
C1610       C  0.83425386  0.75530880  0.82610197    -0.23300
H1611       H  0.78858042  0.97786815  0.84874854     0.05900
H1612       H  0.75424830  0.94866338  0.86185263     0.09100
H1613       H  0.76281014  0.96306490  0.81182994     0.09100
H1614       H  0.82513285  0.72308525  0.84345068     0.09100
H1615       H  0.85728412  0.76247269  0.83429979     0.09100
H1616       H  0.83418973  0.74274960  0.79541776     0.05900
C1617       C  0.76897514  0.81875920  0.64427539    -0.19900
C1618       C  0.77418037  0.86729566  0.66026494    -0.06500
C1619       C  0.79313764  0.90158046  0.64066544     0.14400
C1620       C  0.80740056  0.88546188  0.60651745    -0.20000
C1621       C  0.80306594  0.83580171  0.59148255    -0.06500
C1622       C  0.78241928  0.80305871  0.60988700     0.14300
C1623       C  0.77364767  0.75180937  0.59314503    -0.23300
H1624       H  0.75445981  0.79244989  0.65919836     0.15600
H1625       H  0.82280478  0.91101056  0.59240447     0.15700
C1626       C  0.79828929  0.95502588  0.65574817    -0.23300
H1627       H  0.75495117  0.73456118  0.60902289     0.05900
H1628       H  0.79183223  0.72385893  0.59491770     0.09100
H1629       H  0.76683128  0.75719615  0.56260272     0.09100
H1630       H  0.80804755  0.95331137  0.68505205     0.09100
H1631       H  0.77728245  0.97604256  0.65716614     0.09100
H1632       H  0.81342804  0.97701528  0.63684812     0.05900
C1633       C  0.92933700  0.63100530  0.85849345    -0.19900
C1634       C  0.93722723  0.67590889  0.87834134    -0.06500
C1635       C  0.96024666  0.70653239  0.86368142     0.14400
C1636       C  0.97423183  0.69204557  0.82948036    -0.20000
C1637       C  0.96721233  0.64620357  0.81042391    -0.06500
C1638       C  0.94432585  0.61525564  0.82515994     0.14300
C1639       C  0.93495072  0.56571208  0.80656830    -0.23300
H1640       H  0.91143616  0.60772084  0.86925447     0.15600
H1641       H  0.49058315  0.71728249  0.81715709     0.15700
C1642       C  0.96946214  0.75580761  0.88272391    -0.23300
H1643       H  0.93386200  0.53507701  0.82892783     0.05900
H1644       H  0.95010296  0.55267934  0.78363823     0.09100
H1645       H  0.91289239  0.57055618  0.79393975     0.09100
H1646       H  0.97823658  0.74720000  0.91194317     0.09100
H1647       H  0.95052743  0.78222819  0.88474950     0.09100
H1648       H  0.48690813  0.77590331  0.86623444     0.05900
C1649       C  0.94301546  0.62691680  0.60446735    -0.19900
C1650       C  0.92981393  0.67559604  0.60320050    -0.06500
C1651       C  0.93202401  0.70873543  0.63524318     0.14400
C1652       C  0.94789743  0.69294019  0.66765662    -0.20000
C1653       C  0.96186793  0.64494767  0.66876695    -0.06500
C1654       C  0.95880186  0.61084397  0.63728552     0.14300
C1655       C  0.97123420  0.55722802  0.63883941    -0.23300
H1656       H  0.94076855  0.60142772  0.57992373     0.15600
H1657       H  0.95026845  0.71889786  0.69192351     0.15700
C1658       C  0.91837766  0.76152792  0.63478303    -0.23300
H1659       H  0.96569798  0.53495232  0.61250414     0.05900
H1660       H  0.96225950  0.53635300  0.66430603     0.09100
H1661       H  0.99527106  0.55859504  0.64115778     0.09100
H1662       H  0.89439627  0.75814953  0.63155607     0.09100
H1663       H  0.92731345  0.78436538  0.61025222     0.09100
H1664       H  0.92281086  0.78285782  0.66192088     0.05900
C1665       C  0.79139016  0.11146983  0.64741245    -0.19900
C1666       C  0.78577724  0.14839081  0.67596727    -0.06500
C1667       C  0.79549953  0.19938071  0.67027192     0.14400
C1668       C  0.81129458  0.21169150  0.63706076    -0.20000
C1669       C  0.81709537  0.17525730  0.60801160    -0.06500
C1670       C  0.80684651  0.12411271  0.61338707     0.14300
C1671       C  0.81178569  0.08266384  0.58378102    -0.23300
H1672       H  0.78345378  0.07261851  0.65176752     0.15600
H1673       H  0.81851509  0.25117320  0.63372991     0.15700
C1674       C  0.78853565  0.24277714  0.69752828    -0.23300
H1675       H  0.80173475  0.04561233  0.59267851     0.05900
H1676       H  0.83550344  0.07604435  0.57989396     0.09100
H1677       H  0.80175946  0.09404716  0.55581776     0.09100
H1678       H  0.77291270  0.23144982  0.72024875     0.09100
H1679       H  0.77828458  0.27490473  0.68118865     0.09100
H1680       H  0.80886999  0.25688859  0.71122692     0.05900
C1681       C  0.79241407  0.21263942  0.86653496    -0.19900
C1682       C  0.80916380  0.17608548  0.88669934    -0.06500
C1683       C  0.80945525  0.12459765  0.87333374     0.14400
C1684       C  0.79450369  0.11218629  0.83900812    -0.20000
C1685       C  0.77866078  0.14944854  0.81834464    -0.06500
C1686       C  0.77732965  0.20019785  0.83268807     0.14300
C1687       C  0.76093762  0.24216119  0.81195800    -0.23300
H1688       H  0.79167047  0.25194329  0.87684698     0.15600
H1689       H  0.79529280  0.07325025  0.82798159     0.15700
C1690       C  0.82606781  0.08293705  0.89417355    -0.23300
H1691       H  0.76254430  0.27957499  0.82720132     0.05900
H1692       H  0.73761410  0.23229538  0.81006817     0.09100
H1693       H  0.77005955  0.24763928  0.78267561     0.09100
H1694       H  0.81712274  0.07779675  0.92380147     0.09100
H1695       H  0.84950169  0.09328995  0.89579748     0.09100
H1696       H  0.82433089  0.04538798  0.87914721     0.05900
C1697       C  0.95381289  0.39080199  0.65701981    -0.19900
C1698       C  0.97382837  0.35510221  0.67222486    -0.06500
C1699       C  0.97659268  0.30641472  0.65441415     0.14400
C1700       C  0.96098917  0.29623429  0.62052203    -0.20000
C1701       C  0.94084384  0.33155179  0.60545468    -0.06500
C1702       C  0.93702539  0.37940920  0.62407235     0.14300
C1703       C  0.91577443  0.41878310  0.60896658    -0.23300
H1704       H  0.95123217  0.42763529  0.67120431     0.15600
H1705       H  0.96331803  0.25888583  0.60698169     0.15700
C1706       C  0.49421301  0.26294533  0.67145235    -0.23300
H1707       H  0.91661936  0.45494817  0.62593530     0.05900
H1708       H  0.89323141  0.40354362  0.61083248     0.09100
H1709       H  0.92100769  0.42827220  0.57837977     0.09100
H1710       H  0.50396224  0.27239705  0.69980875     0.09100
H1711       H  0.51185105  0.25209578  0.65104912     0.09100
H1712       H  0.47988402  0.22904865  0.67613464     0.05900
C1713       C  0.95994768  0.30432001  0.81745267    -0.19900
C1714       C  0.96983718  0.35511647  0.81359540    -0.06500
C1715       C  0.96378480  0.39107669  0.84295772     0.14400
C1716       C  0.94913359  0.37476622  0.87656041    -0.20000
C1717       C  0.94015021  0.32354124  0.88084091    -0.06500
C1718       C  0.94529434  0.28800060  0.85087301     0.14300
C1719       C  0.93516248  0.23296628  0.85410649    -0.23300
H1720       H  0.96398824  0.27723011  0.79431677     0.15600
H1721       H  0.94417354  0.40214998  0.89918858     0.15700
C1722       C  0.47137191  0.44693907  0.83780711    -0.23300
H1723       H  0.94108801  0.21032088  0.82807745     0.05900
H1724       H  0.91110015  0.23180709  0.85736769     0.09100
H1725       H  0.94538869  0.21437662  0.87969173     0.09100
H1726       H  0.46071943  0.46163885  0.81118345     0.09100
H1727       H  0.49515205  0.45194177  0.83475676     0.09100
H1728       H  0.46404111  0.47033367  0.86279801     0.05900
C1729       C  0.67710931  0.18102248  0.84451545    -0.19900
C1730       C  0.68525147  0.16027915  0.88035219    -0.06500
C1731       C  0.70726543  0.12244234  0.88195050     0.14400
C1732       C  0.72095409  0.10706357  0.84745095    -0.20000
C1733       C  0.71449579  0.13106297  0.81187591    -0.06500
C1734       C  0.69163849  0.16786886  0.81037825     0.14300
C1735       C  0.68358475  0.19673952  0.77380537    -0.23300
H1736       H  0.66000740  0.20978289  0.84350398     0.15600
H1737       H  0.73775629  0.07785071  0.84848839     0.15700
C1738       C  0.71630089  0.09826975  0.91974139    -0.23300
H1739       H  0.66824920  0.22880329  0.77972390     0.05900
H1740       H  0.67245024  0.17085348  0.75320869     0.09100
H1741       H  0.70323963  0.21371829  0.76002178     0.09100
H1742       H  0.69715184  0.07999317  0.93386264     0.09100
H1743       H  0.72548333  0.12802992  0.93914983     0.09100
H1744       H  0.73324317  0.06829674  0.91549757     0.05900
C1745       C  0.69228744  0.11259269  0.61575375    -0.19900
C1746       C  0.69229879  0.16430340  0.60346867    -0.06500
C1747       C  0.70727777  0.20128821  0.62565836     0.14400
C1748       C  0.72144593  0.18605394  0.65960653    -0.20000
C1749       C  0.72235996  0.13440592  0.67139879    -0.06500
C1750       C  0.70758407  0.09706885  0.64926382     0.14300
C1751       C  0.70820547  0.04116014  0.66073005    -0.23300
H1752       H  0.68042035  0.08436304  0.59900931     0.15600
H1753       H  0.73179492  0.21489559  0.67736398     0.15700
C1754       C  0.70770751  0.25731530  0.61431419    -0.23300
H1755       H  0.69607147  0.01698459  0.63980155     0.05900
H1756       H  0.69808991  0.03586537  0.68964254     0.09100
H1757       H  0.73108842  0.02747150  0.66175043     0.09100
H1758       H  0.68510305  0.27218611  0.61188020     0.09100
H1759       H  0.71907442  0.26164133  0.58621739     0.09100
H1760       H  0.71949180  0.28120138  0.63578822     0.05900
C1761       C  0.55080542  0.29060460  0.86115367    -0.19900
C1762       C  0.56307279  0.32770401  0.88586214    -0.06500
C1763       C  0.56023699  0.38044569  0.87569321     0.14400
C1764       C  0.54564524  0.39402517  0.84116257    -0.20000
C1765       C  0.53363196  0.35644374  0.81682864    -0.06500
C1766       C  0.53696064  0.30399248  0.82662481     0.14300
C1767       C  0.02732420  0.26063952  0.80067053    -0.23300
H1768       H  0.55270862  0.25002093  0.86810018     0.15600
H1769       H  0.54404909  0.43411943  0.83278204     0.15700
C1770       C  0.57313741  0.42250676  0.90012715    -0.23300
H1771       H  0.01142150  0.23591205  0.81629802     0.05900
H1772       H  0.04651691  0.23687093  0.79279520     0.09100
H1773       H  0.01716090  0.27393560  0.77337252     0.09100
H1774       H  0.59704476  0.41698985  0.90270192     0.09100
H1775       H  0.56301223  0.42200555  0.92931084     0.09100
H1776       H  0.56929480  0.46118442  0.88729857     0.05900
C1777       C  0.55256249  0.36467810  0.60785096    -0.19900
C1778       C  0.57027814  0.32073046  0.61145941    -0.06500
C1779       C  0.57393421  0.29821573  0.64865908     0.14400
C1780       C  0.55856520  0.31825431  0.68016061    -0.20000
C1781       C  0.53946636  0.36011962  0.67613948    -0.06500
C1782       C  0.53739308  0.38499124  0.63971822     0.14300
C1783       C  0.01989247  0.43327394  0.63347234    -0.23300
H1784       H  0.55024489  0.38317100  0.57984314     0.15600
H1785       H  0.56036593  0.29919608  0.70803271     0.15700
C1786       C  0.59399625  0.25316384  0.65603471    -0.23300
H1787       H  0.03407040  0.46345658  0.62077497     0.05900
H1788       H  0.01058318  0.44857237  0.66071121     0.09100
H1789       H  0.00198107  0.42558253  0.61274966     0.09100
H1790       H  0.61628979  0.26232107  0.64552883     0.09100
H1791       H  0.58560467  0.21827225  0.64141507     0.09100
H1792       H  0.59564698  0.24372145  0.68734031     0.05900
loop_ 
_geom_bond_atom_site_label_1 
_geom_bond_atom_site_label_2 
_geom_bond_distance 
_geom_bond_site_symmetry_2 
_ccdc_geom_bond_type 
N1            C6   1.358   1_556  A
N1            C5   1.356   1_556  A
N1           H33   1.038       .  S
N2           C10   1.354       .  A
N2          C457   1.354       .  A
N3            C8   1.354       .  A
N3            C7   1.354       .  A
N3           H34   1.032       .  S
N4           C11   1.349       .  A
N4          C460   1.349       .  A
C5           C13   1.389       .  A
C5           C21   1.425   1_554  A
C6           C22   1.415   1_554  A
C6           C14   1.384       .  A
C7           C15   1.389       .  A
C7           C24   1.415       .  A
C8           C23   1.415       .  A
C8           C16   1.387       .  A
C9          N450   1.354       .  A
C9           C21   1.425       .  A
C9          C465   1.390       .  A
C10          C24   1.416       .  A
C10          C18   1.383       .  A
C11          C19   1.386       .  A
C11          C22   1.408       .  A
C12         N452   1.349       .  A
C12          C23   1.411       .  A
C12         C468   1.387       .  A
C13          C14   1.372       .  A
C13          H25   1.078       .  S
C14          H26   1.082       .  S
C15          C16   1.372       .  A
C15          H27   1.082       .  S
C16          H28   1.081       .  S
C17          C18   1.378       .  A
C17         C457   1.390       .  A
C17          H29   1.081       .  S
C18          H30   1.082       .  S
C19          C20   1.376       .  A
C19          H31   1.082       .  S
C20         C460   1.387       .  A
C20          H32   1.082       .  S
C21         C537   1.506       .  S
C22         C541   1.481       .  S
C23         C131   1.475       .  S
C24         C139   1.482       .  S
N35          C40   1.356       .  A
N35         C935   1.359       .  A
N35          H67   1.043       .  S
N36          C43   1.350       .  A
N36          C44   1.349   1_565  A
N37          C42   1.354       .  A
N37         C937   1.354       .  A
N37          H68   1.042       .  S
N38          C45   1.352   1_545  A
N38          C46   1.352       .  A
C39         N931   1.359   1_455  A
C39          C47   1.387       .  A
C39          C55   1.423       .  A
C40          C56   1.422       .  A
C40          C48   1.384       .  A
C41         N933   1.354   1_455  A
C41          C49   1.385       .  A
C41          C58   1.411       .  A
C42          C57   1.424       .  A
C42          C50   1.391       .  A
C43          C55   1.415       .  A
C43          C51   1.390       .  A
C44          C58   1.406       .  A
C44          C52   1.384       .  A
C45          C53   1.386       .  A
C45          C56   1.414       .  A
C46          C54   1.388       .  A
C46          C57   1.418       .  A
C47         C944   1.374   1_455  A
C47          H59   1.082       .  S
C48         C943   1.374       .  A
C48          H60   1.077       .  S
C49         C946   1.374   1_455  A
C49          H61   1.082       .  S
C50         C945   1.374       .  A
C50          H62   1.082       .  S
C51          C52   1.375   1_565  A
C51          H63   1.080       .  S
C52          H64   1.082       .  S
C53          C54   1.378   1_565  A
C53          H65   1.081       .  S
C54          H66   1.081       .  S
C55         C158   1.501       .  S
C56         C136   1.504       .  S
C57         C112   1.501       .  S
C58          C70   1.478       .  S
O69          C85   1.271       .  A
O69         Zn75   1.994       .  S
C70          O86   1.271       .  A
C70         O531   1.274       .  A
O71          C84   1.279       .  A
O71         Cd78   2.112       .  S
O72          C90   1.273       .  A
O72         Cd81   2.057       .  S
O73          C87   1.278       .  A
O73        Cd525   2.089   1_554  S
O74          C85   1.275       .  A
O74         Cd77   2.087       .  S
Zn75         O86   2.010       .  S
Zn75         O88   1.977       .  S
Zn75         O80   1.924       .  S
O76          C87   1.274       .  A
O76         Cd81   2.073       .  S
Cd77         O79   2.079       .  S
Cd77        O521   2.089       .  S
Cd77         O80   1.997       .  S
Cd78         O82   2.089       .  S
Cd78        O539   2.090       .  S
Cd78         O80   2.030       .  S
O79          C89   1.278       .  A
O80        Cd529   1.994       .  S
Cd81         O83   2.074       .  S
Cd81        O528   1.994   1_554  S
O82          C89   1.276       .  A
O83         C518   1.274   1_554  A
C84         C418   1.496       .  S
C84          O88   1.271       .  A
C85         C386   1.476       .  S
C87         C402   1.481       .  S
C89         C469   1.506       .  S
C90         C434   1.490       .  S
C90          O91   1.278       .  A
O91        Cd526   2.090   1_554  S
O92         C108   1.274       .  A
O92         Zn98   2.031       .  S
C93         C470   1.481       .  S
C93         O106   1.273       .  A
C93         O557   1.274       .  A
O94         C107   1.277       .  A
O94        Cd549   2.094   1_554  S
O95         C113   1.273       .  A
O95        Cd104   2.047       .  S
O96         C110   1.276       .  A
O96        Cd100   2.081       .  S
O97         C108   1.274       .  A
O97        Cd548   2.069   1_554  S
Zn98        O109   2.027       .  S
Zn98        O111   1.983       .  S
Zn98        O551   1.936   1_554  S
O99         C110   1.272       .  A
O99        Cd104   2.054       .  S
Cd100       O102   2.056       .  S
Cd100       O545   2.069       .  S
Cd100       O103   1.991       .  S
Cd101       O105   2.096       .  S
Cd101       O114   2.098       .  S
Cd101       O542   2.094       .  S
Cd101       O103   2.030       .  S
O102        C112   1.273       .  A
O103       Zn546   1.936       .  S
O103       Cd104   1.986       .  S
Cd104       O106   2.069       .  S
O105        C112   1.277       .  A
C107        C325   1.495       .  S
C107        O111   1.273       .  A
C108        C357   1.481       .  S
O109        C541   1.274   1_554  A
C110        C373   1.467       .  S
C113        C338   1.491       .  S
C113        O114   1.277       .  A
O115        C579   1.273   1_554  A
O115       Zn121   2.019       .  S
C116        C306   1.470       .  S
C116        O132   1.272       .  A
C116        O129   1.273       .  A
O117        C130   1.283       .  A
O117       Cd572   2.131   1_554  S
O118        C136   1.275       .  A
O118       Cd127   2.062       .  S
O119        C133   1.272       .  A
O119       Cd123   2.058       .  S
O120        C131   1.272       .  A
O120       Cd123   2.062       .  S
Zn121       O132   2.010       .  S
Zn121       O134   1.989       .  S
Zn121       O574   1.931   1_554  S
O122        C133   1.275       .  A
O122       Cd127   2.074       .  S
Cd123       O125   2.047       .  S
Cd123       O126   1.994       .  S
Cd124       O128   2.120       .  S
Cd124       O137   2.114       .  S
Cd124       O565   2.131       .  S
Cd124       O126   2.033       .  S
O125        C135   1.271       .  A
O126       Zn569   1.931       .  S
O126       Cd127   1.997       .  S
Cd127       O577   2.073       .  S
O128        C135   1.282       .  A
O129       Cd575   2.073   1_554  S
C130        C277   1.494       .  S
C130        O134   1.271       .  A
C131        O563   1.273       .  A
C133        C290   1.481       .  S
C135        C258   1.498       .  S
C136        O137   1.281       .  A
O138        C154   1.273       .  A
O138       Zn144   2.021       .  S
C139        O152   1.274       .  A
C139        O603   1.276       .  A
O140        C153   1.279       .  A
O140       Cd595   2.110   1_554  S
O141        C159   1.274       .  A
O141       Cd150   2.067       .  S
O142        C156   1.274       .  A
O142       Cd146   2.075       .  S
O143        C154   1.270       .  A
O143       Cd594   2.048   1_554  S
Zn144       O155   2.031       .  S
Zn144       O157   2.007       .  S
Zn144       O597   1.941   1_554  S
O145        C156   1.273       .  A
O145       Cd150   2.057       .  S
Cd146       O148   2.056       .  S
Cd146       O591   2.048       .  S
Cd146       O149   2.001       .  S
Cd147       O151   2.096       .  S
Cd147       O160   2.108       .  S
Cd147       O588   2.110       .  S
Cd147       O149   2.025       .  S
O148        C158   1.273       .  A
O149       Zn592   1.941       .  S
O149       Cd150   1.990       .  S
Cd150       O152   2.073       .  S
O151        C158   1.278       .  A
C153        C194   1.500       .  S
C153        O157   1.275       .  A
C154        C226   1.475       .  S
O155        C587   1.276   1_554  A
C156        C242   1.468       .  S
C159        C213   1.494       .  S
C159        O160   1.280       .  A
C161        C166   1.403       .  A
C161       C1058   1.422       .  A
C161        C354   1.489       .  S
C162        C163   1.411       .  A
C162       C1057   1.422   1_455  A
C162        C437   1.494       .  S
C163        C164   1.402       .  A
C163        H168   1.084       .  S
C164       C1061   1.412   1_455  A
C164        C421   1.488       .  S
C165        C166   1.401       .  A
C165       C1060   1.412       .  A
C165        C370   1.481       .  S
C166        H167   1.085       .  S
C169        C174   1.402       .  A
C169       C1066   1.418       .  A
C169        C309   1.485       .  S
C170        C171   1.402       .  A
C170       C1065   1.418   1_455  A
C170        C229   1.491       .  S
C171        C172   1.402       .  A
C171        H176   1.084       .  S
C172       C1069   1.417   1_455  A
C172        C245   1.488       .  S
C173        C174   1.402       .  A
C173       C1068   1.417       .  A
C173        C293   1.489       .  S
C174        H175   1.085       .  S
C177        C178   1.418       .  A
C177        C182   1.409       .  A
C177        C197   1.496       .  S
C178        C179   1.407       .  A
C178        C274   1.498       .  S
C179        C180   1.410       .  A
C179        H184   1.084       .  S
C180        C181   1.421       .  A
C180        C261   1.497       .  S
C181        C182   1.407       .  A
C181        C210   1.498       .  S
C182        H183   1.083       .  S
C185        C186   1.413       .  A
C185        C190   1.405       .  A
C185        C322   1.484       .  S
C186        C187   1.402       .  A
C186        C405   1.491       .  S
C187        C188   1.409       .  A
C187        H192   1.081       .  S
C188        C189   1.420       .  A
C188        C389   1.493       .  S
C189        C190   1.403       .  A
C189        C341   1.491       .  S
C190        H191   1.084       .  S
C193        C194   1.409       .  A
C193        C198   1.401       .  A
C193        H200   1.083       .  S
C194        C195   1.420       .  A
C195        C196   1.412       .  A
C195        C202   1.506       .  S
C196        C197   1.406       .  A
C196        H201   1.083       .  S
C197        C198   1.416       .  A
C198        C199   1.512       .  S
C199        H203   1.111       .  S
C199        H204   1.108       .  S
C199        H205   1.110       .  S
C202        H206   1.110       .  S
C202        H207   1.110       .  S
C202        H208   1.111       .  S
C209        C210   1.403       .  A
C209        C214   1.403       .  A
C209        H216   1.084       .  S
C210        C211   1.416       .  A
C211        C212   1.412       .  A
C211        C218   1.508       .  S
C212        C213   1.408       .  A
C212        H217   1.084       .  S
C213        C214   1.419       .  A
C214        C215   1.510       .  S
C215        H219   1.111       .  S
C215        H220   1.109       .  S
C215        H221   1.111       .  S
C218        H222   1.108       .  S
C218        H223   1.107       .  S
C218        H224   1.111       .  S
C225        C226   1.402       .  A
C225        C230   1.404       .  A
C225        H232   1.085       .  S
C226        C227   1.414       .  A
C227        C228   1.399       .  A
C227        C234   1.510       .  S
C228        C229   1.404       .  A
C228       H1129   1.082       .  S
C229        C230   1.418       .  A
C230        C231   1.506       .  S
C231        H235   1.107       .  S
C231        H236   1.108       .  S
C231        H237   1.110       .  S
H233       C1124   1.082       .  S
C234        H238   1.110       .  S
C234        H239   1.110       .  S
C234       H1136   1.111       .  S
H240       C1130   1.111       .  S
C241        C242   1.397       .  A
C241        C246   1.397       .  A
C241        H248   1.085       .  S
C242        C243   1.410       .  A
C243        C244   1.408       .  A
C243        C250   1.505       .  S
C244        C245   1.408       .  A
C244        H249   1.084       .  S
C245        C246   1.418       .  A
C246        C247   1.511       .  S
C247        H251   1.111       .  S
C247        H252   1.110       .  S
C247        H253   1.107       .  S
C250        H254   1.110       .  S
C250        H255   1.110       .  S
C250        H256   1.111       .  S
C257        C258   1.408       .  A
C257        C262   1.409       .  A
C257        H264   1.084       .  S
C258        C259   1.426       .  A
C259        C260   1.402       .  A
C259        C266   1.511       .  S
C260        C261   1.401       .  A
C260        H265   1.084       .  S
C261        C262   1.416       .  A
C262        C263   1.504       .  S
C263        H267   1.110       .  S
C263        H268   1.110       .  S
C263        H269   1.108       .  S
C266        H270   1.109       .  S
C266        H271   1.111       .  S
C266        H272   1.111       .  S
C273        C274   1.400       .  A
C273        C278   1.401       .  A
C273        H280   1.083       .  S
C274        C275   1.415       .  A
C275        C276   1.414       .  A
C275        C282   1.505       .  S
C276        C277   1.408       .  A
C276        H281   1.084       .  S
C277        C278   1.421       .  A
C278        C279   1.510       .  S
C279        H283   1.111       .  S
C279        H284   1.108       .  S
C279        H285   1.110       .  S
C282        H286   1.109       .  S
C282        H287   1.110       .  S
C282        H288   1.110       .  S
C289        C290   1.404       .  A
C289        C294   1.404       .  A
C289        H296   1.085       .  S
C290        C291   1.414       .  A
C291        C292   1.398       .  A
C291        C298   1.504       .  S
C292        C293   1.402       .  A
C292       H1193   1.082       .  S
C293        C294   1.416       .  A
C294        C295   1.505       .  S
C295        H299   1.108       .  S
C295        H300   1.108       .  S
C295        H301   1.110       .  S
H297       C1188   1.082       .  S
C298        H302   1.110       .  S
C298        H303   1.110       .  S
C298       H1200   1.111       .  S
H304       C1194   1.111       .  S
C305        C306   1.404       .  A
C305        C310   1.409       .  A
C305        H312   1.084       .  S
C306        C307   1.410       .  A
C307        C308   1.397       .  A
C307        C314   1.509       .  S
C308        C309   1.403       .  A
C308        H313   1.084       .  S
C309        C310   1.414       .  A
C310        C311   1.507       .  S
C311        H315   1.111       .  S
C311        H316   1.110       .  S
C311        H317   1.107       .  S
C314        H318   1.110       .  S
C314        H319   1.111       .  S
C314        H320   1.111       .  S
C321        C322   1.403       .  A
C321        C326   1.410       .  A
C321        H328   1.083       .  S
C322        C323   1.411       .  A
C323        C324   1.393       .  A
C323        C330   1.507       .  S
C324        C325   1.409       .  A
C324        H329   1.084       .  S
C325        C326   1.421       .  A
C326        C327   1.506       .  S
C327        H331   1.110       .  S
C327        H332   1.110       .  S
C327        H333   1.110       .  S
C330        H334   1.102       .  S
C330        H335   1.111       .  S
C330        H336   1.110       .  S
C337        C338   1.405       .  A
C337        C342   1.399       .  A
C337        H344   1.084       .  S
C338        C339   1.418       .  A
C339        C340   1.410       .  A
C339        C346   1.506       .  S
C340        C341   1.404       .  A
C340        H345   1.084       .  S
C341        C342   1.413       .  A
C342        C343   1.505       .  S
C343        H347   1.111       .  S
C343        H348   1.103       .  S
C343        H349   1.103       .  S
C346        H350   1.110       .  S
C346        H351   1.110       .  S
C346        H352   1.111       .  S
C353        C354   1.407       .  A
C353        C358   1.408       .  A
C353        H360   1.084       .  S
C354        C355   1.416       .  A
C355        C356   1.400       .  A
C355       C1258   1.508       .  S
C356        C357   1.402       .  A
C356        H361   1.085       .  S
C357        C358   1.414       .  A
C358        C359   1.506       .  S
C359        H363   1.111       .  S
C359        H364   1.109       .  S
C359        H365   1.110       .  S
C362       C1251   1.508       .  S
C362        H366   1.107   1_655  S
C362        H367   1.110   1_655  S
C362        H368   1.110       .  S
C369        C370   1.402       .  A
C369        C374   1.400       .  A
C369        H376   1.084       .  S
C370        C371   1.410       .  A
C371        C372   1.405       .  A
C371       C1274   1.503       .  S
C372        C373   1.401       .  A
C372        H377   1.084       .  S
C373        C374   1.411       .  A
C374        C375   1.508       .  S
C375        H379   1.111       .  S
C375        H380   1.110       .  S
C375        H381   1.110       .  S
C378       C1267   1.503       .  S
C378        H382   1.109       .  S
C378        H383   1.104       .  S
C378        H384   1.111       .  S
C385        C386   1.400       .  A
C385        C390   1.398       .  A
C385        H392   1.085       .  S
C386        C387   1.411       .  A
C387        C388   1.407       .  A
C387        C394   1.506       .  S
C388        C389   1.408       .  A
C388        H393   1.083       .  S
C389        C390   1.421       .  A
C390        C391   1.513       .  S
C391        H395   1.111       .  S
C391        H396   1.107       .  S
C391        H397   1.110       .  S
C394        H398   1.110       .  S
C394        H399   1.110       .  S
C394        H400   1.111       .  S
C401        C402   1.408       .  A
C401        C406   1.412       .  A
C401        H408   1.084       .  S
C402        C403   1.412       .  A
C403        C404   1.398       .  A
C403        C410   1.506       .  S
C404        C405   1.402       .  A
C404        H409   1.081       .  S
C405        C406   1.412       .  A
C406        C407   1.505       .  S
C407        H411   1.111       .  S
C407        H412   1.109       .  S
C407        H413   1.110       .  S
C410        H414   1.110       .  S
C410        H415   1.107       .  S
C410        H416   1.111       .  S
C417        C418   1.409       .  A
C417        C422   1.395       .  A
C417        H424   1.084       .  S
C418        C419   1.420       .  A
C419        C420   1.413       .  A
C419        C426   1.506       .  S
C420        C421   1.405       .  A
C420        H425   1.083       .  S
C421        C422   1.412       .  A
C422       C1319   1.510       .  S
C423       C1318   1.510       .  S
C423        H427   1.110       .  S
C423        H428   1.110       .  S
C423        H429   1.107       .  S
C426        H430   1.110       .  S
C426        H431   1.110       .  S
C426        H432   1.111       .  S
C433        C434   1.408       .  A
C433        C438   1.407       .  A
C433        H440   1.084       .  S
C434        C435   1.420       .  A
C435        C436   1.399       .  A
C435        C442   1.511       .  S
C436        C437   1.404       .  A
C436        H441   1.084       .  S
C437        C438   1.416       .  A
C438       C1335   1.505       .  S
C439       C1334   1.505       .  S
C439        H443   1.108       .  S
C439        H444   1.109       .  S
C439        H445   1.110       .  S
C442        H446   1.111       .  S
C442        H447   1.109       .  S
C442        H448   1.111       .  S
N449        C454   1.358       .  A
N449        C453   1.356       .  A
N449        H481   1.038       .  S
N450        C458   1.354       .  A
N451        C456   1.354       .  A
N451        C455   1.354       .  A
N451        H482   1.032       .  S
N452        C459   1.349       .  A
C453        C461   1.389       .  A
C453        C469   1.425       .  A
C454        C470   1.415       .  A
C454        C462   1.384       .  A
C455        C463   1.389   1_556  A
C455        C472   1.415       .  A
C456        C471   1.415       .  A
C456        C464   1.387   1_556  A
C457        C469   1.425       .  A
C458        C472   1.416       .  A
C458        C466   1.383       .  A
C459        C467   1.386       .  A
C459        C470   1.408       .  A
C460        C471   1.411       .  A
C461        C462   1.372       .  A
C461        H473   1.078       .  S
C462        H474   1.082       .  S
C463        C464   1.372       .  A
C463        H475   1.082       .  S
C464        H476   1.081       .  S
C465        C466   1.378       .  A
C465        H477   1.081       .  S
C466        H478   1.082       .  S
C467        C468   1.376       .  A
C467        H479   1.082       .  S
C468        H480   1.082       .  S
C471        C579   1.475       .  S
C472        C587   1.482       .  S
N483        C488   1.356       .  A
N483       C1383   1.359       .  A
N483        H515   1.043   1_556  S
N484        C491   1.350       .  A
N484        C492   1.349   1_565  A
N485        C490   1.354       .  A
N485       C1385   1.354       .  A
N485        H516   1.042   1_556  S
N486        C493   1.352   1_545  A
N486        C494   1.352       .  A
C487       N1379   1.359   1_455  A
C487        C495   1.387       .  A
C487        C503   1.423       .  A
C488        C504   1.422       .  A
C488        C496   1.384       .  A
C489       N1381   1.354   1_455  A
C489        C497   1.385       .  A
C489        C506   1.411       .  A
C490        C505   1.424       .  A
C490        C498   1.391       .  A
C491        C503   1.415       .  A
C491        C499   1.390   1_556  A
C492        C506   1.406       .  A
C492        C500   1.384   1_556  A
C493        C501   1.386   1_556  A
C493        C504   1.414       .  A
C494        C502   1.388   1_556  A
C494        C505   1.418       .  A
C495       C1392   1.374   1_455  A
C495        H507   1.082       .  S
C496       C1391   1.374       .  A
C496        H508   1.077       .  S
C497       C1394   1.374   1_455  A
C497        H509   1.082       .  S
C498       C1393   1.374       .  A
C498        H510   1.082       .  S
C499        C500   1.375   1_565  A
C499        H511   1.080       .  S
C500        H512   1.082       .  S
C501        C502   1.378   1_565  A
C501        H513   1.081       .  S
C502        H514   1.081       .  S
C503        C606   1.501       .  S
C504        C584   1.504       .  S
C505        C560   1.501       .  S
C506        C518   1.478       .  S
O517        C533   1.271       .  A
O517       Zn523   1.994       .  S
C518        O534   1.271       .  A
O519        C532   1.279       .  A
O519       Cd526   2.112       .  S
O520        C538   1.273       .  A
O520       Cd529   2.057       .  S
O521        C535   1.278       .  A
O522        C533   1.275       .  A
O522       Cd525   2.087       .  S
Zn523       O534   2.010       .  S
Zn523       O536   1.977       .  S
Zn523       O528   1.924       .  S
O524        C535   1.274       .  A
O524       Cd529   2.073       .  S
Cd525       O527   2.079       .  S
Cd525       O528   1.997       .  S
Cd526       O530   2.089       .  S
Cd526       O528   2.030       .  S
O527        C537   1.278       .  A
Cd529       O531   2.074       .  S
O530        C537   1.276       .  A
C532        C866   1.496       .  S
C532        O536   1.271       .  A
C533        C834   1.476       .  S
C535        C850   1.481       .  S
C538        C882   1.490       .  S
C538        O539   1.278       .  A
O540        C556   1.274       .  A
O540       Zn546   2.031       .  S
C541        O554   1.273       .  A
O542        C555   1.277       .  A
O543        C561   1.273       .  A
O543       Cd552   2.047       .  S
O544        C558   1.276       .  A
O544       Cd548   2.081       .  S
O545        C556   1.274       .  A
Zn546       O557   2.027       .  S
Zn546       O559   1.983       .  S
O547        C558   1.272       .  A
O547       Cd552   2.054       .  S
Cd548       O550   2.056       .  S
Cd548       O551   1.991       .  S
Cd549       O553   2.096       .  S
Cd549       O562   2.098       .  S
Cd549       O551   2.030       .  S
O550        C560   1.273       .  A
O551       Cd552   1.986       .  S
Cd552       O554   2.069       .  S
O553        C560   1.277       .  A
C555        C773   1.495       .  S
C555        O559   1.273       .  A
C556        C805   1.481       .  S
C558        C821   1.467       .  S
C561        C786   1.491       .  S
C561        O562   1.277       .  A
O563       Zn569   2.019       .  S
C564        C754   1.470       .  S
C564        O580   1.272       .  A
C564        O577   1.273       .  A
O565        C578   1.283       .  A
O566        C584   1.275       .  A
O566       Cd575   2.062       .  S
O567        C581   1.272       .  A
O567       Cd571   2.058       .  S
O568        C579   1.272       .  A
O568       Cd571   2.062       .  S
Zn569       O580   2.010       .  S
Zn569       O582   1.989       .  S
O570        C581   1.275       .  A
O570       Cd575   2.074       .  S
Cd571       O573   2.047       .  S
Cd571       O574   1.994       .  S
Cd572       O576   2.120       .  S
Cd572       O585   2.114       .  S
Cd572       O574   2.033       .  S
O573        C583   1.271       .  A
O574       Cd575   1.997       .  S
O576        C583   1.282       .  A
C578        C725   1.494       .  S
C578        O582   1.271       .  A
C581        C738   1.481       .  S
C583        C706   1.498       .  S
C584        O585   1.281       .  A
O586        C602   1.273       .  A
O586       Zn592   2.021       .  S
C587        O600   1.274       .  A
O588        C601   1.279       .  A
O589        C607   1.274       .  A
O589       Cd598   2.067       .  S
O590        C604   1.274       .  A
O590       Cd594   2.075       .  S
O591        C602   1.270       .  A
Zn592       O603   2.031       .  S
Zn592       O605   2.007       .  S
O593        C604   1.273       .  A
O593       Cd598   2.057       .  S
Cd594       O596   2.056       .  S
Cd594       O597   2.001       .  S
Cd595       O599   2.096       .  S
Cd595       O608   2.108       .  S
Cd595       O597   2.025       .  S
O596        C606   1.273       .  A
O597       Cd598   1.990       .  S
Cd598       O600   2.073       .  S
O599        C606   1.278       .  A
C601        C642   1.500       .  S
C601        O605   1.275       .  A
C602        C674   1.475       .  S
C604        C690   1.468       .  S
C607        C661   1.494       .  S
C607        O608   1.280       .  A
C609       C1506   1.422       .  A
C609        C614   1.403       .  A
C609        C802   1.489       .  S
C610       C1505   1.422   1_455  A
C610        C611   1.411       .  A
C610        C885   1.494       .  S
C611        C612   1.402       .  A
C611        H616   1.084       .  S
C612       C1509   1.412   1_455  A
C612        C869   1.488       .  S
C613       C1508   1.412       .  A
C613        C614   1.401       .  A
C613        C818   1.481       .  S
C614        H615   1.085       .  S
C617       C1514   1.418       .  A
C617        C622   1.402       .  A
C617        C757   1.485       .  S
C618       C1513   1.418   1_455  A
C618        C619   1.402       .  A
C618        C677   1.491       .  S
C619        C620   1.402       .  A
C619        H624   1.084       .  S
C620       C1517   1.417   1_455  A
C620        C693   1.488       .  S
C621       C1516   1.417       .  A
C621        C622   1.402       .  A
C621        C741   1.489       .  S
C622        H623   1.085       .  S
C625        C626   1.418       .  A
C625        C630   1.409       .  A
C625        C645   1.496       .  S
C626        C627   1.407       .  A
C626        C722   1.498       .  S
C627        C628   1.410       .  A
C627        H632   1.084       .  S
C628        C629   1.421       .  A
C628        C709   1.497       .  S
C629        C630   1.407       .  A
C629        C658   1.498       .  S
C630        H631   1.083       .  S
C633        C634   1.413       .  A
C633        C638   1.405       .  A
C633        C770   1.484       .  S
C634        C635   1.402       .  A
C634        C853   1.491       .  S
C635        C636   1.409       .  A
C635        H640   1.081       .  S
C636        C637   1.420       .  A
C636        C837   1.493       .  S
C637        C638   1.403       .  A
C637        C789   1.491       .  S
C638        H639   1.084       .  S
C641        C642   1.409       .  A
C641        C646   1.401       .  A
C641        H648   1.083       .  S
C642        C643   1.420       .  A
C643        C644   1.412       .  A
C643        C650   1.506       .  S
C644        C645   1.406       .  A
C644        H649   1.083       .  S
C645        C646   1.416       .  A
C646        C647   1.512       .  S
C647        H651   1.111       .  S
C647        H652   1.108       .  S
C647        H653   1.110       .  S
C650        H654   1.110       .  S
C650        H655   1.110       .  S
C650        H656   1.111       .  S
C657        C658   1.403       .  A
C657        C662   1.403       .  A
C657        H664   1.084       .  S
C658        C659   1.416       .  A
C659        C660   1.412       .  A
C659        C666   1.508       .  S
C660        C661   1.408       .  A
C660        H665   1.084       .  S
C661        C662   1.419       .  A
C662        C663   1.510       .  S
C663        H667   1.111       .  S
C663        H668   1.109       .  S
C663        H669   1.111       .  S
C666        H670   1.108       .  S
C666        H671   1.107       .  S
C666        H672   1.111       .  S
C673        C674   1.402       .  A
C673        C678   1.404       .  A
C673        H680   1.085       .  S
C674        C675   1.414       .  A
C675        C676   1.399       .  A
C675        C682   1.510       .  S
C676        C677   1.404       .  A
C676       H1577   1.082       .  S
C677        C678   1.418       .  A
C678        C679   1.506       .  S
C679        H683   1.107       .  S
C679        H684   1.108       .  S
C679        H685   1.110       .  S
H681       C1572   1.082       .  S
C682        H686   1.110       .  S
C682        H687   1.110       .  S
C682       H1584   1.111       .  S
H688       C1578   1.111       .  S
C689        C690   1.397       .  A
C689        C694   1.397       .  A
C689        H696   1.085       .  S
C690        C691   1.410       .  A
C691        C692   1.408       .  A
C691        C698   1.505       .  S
C692        C693   1.408       .  A
C692        H697   1.084       .  S
C693        C694   1.418       .  A
C694        C695   1.511       .  S
C695        H699   1.111       .  S
C695        H700   1.110       .  S
C695        H701   1.107       .  S
C698        H702   1.110       .  S
C698        H703   1.110       .  S
C698        H704   1.111       .  S
C705        C706   1.408       .  A
C705        C710   1.409       .  A
C705        H712   1.084       .  S
C706        C707   1.426       .  A
C707        C708   1.402       .  A
C707        C714   1.511       .  S
C708        C709   1.401       .  A
C708        H713   1.084       .  S
C709        C710   1.416       .  A
C710        C711   1.504       .  S
C711        H715   1.110       .  S
C711        H716   1.110       .  S
C711        H717   1.108       .  S
C714        H718   1.109       .  S
C714        H719   1.111       .  S
C714        H720   1.111       .  S
C721        C722   1.400       .  A
C721        C726   1.401       .  A
C721        H728   1.083       .  S
C722        C723   1.415       .  A
C723        C724   1.414       .  A
C723        C730   1.505       .  S
C724        C725   1.408       .  A
C724        H729   1.084       .  S
C725        C726   1.421       .  A
C726        C727   1.510       .  S
C727        H731   1.111       .  S
C727        H732   1.108       .  S
C727        H733   1.110       .  S
C730        H734   1.109       .  S
C730        H735   1.110       .  S
C730        H736   1.110       .  S
C737        C738   1.404       .  A
C737        C742   1.404       .  A
C737        H744   1.085       .  S
C738        C739   1.414       .  A
C739        C740   1.398       .  A
C739        C746   1.504       .  S
C740        C741   1.402       .  A
C740       H1641   1.082       .  S
C741        C742   1.416       .  A
C742        C743   1.505       .  S
C743        H747   1.108       .  S
C743        H748   1.108       .  S
C743        H749   1.110       .  S
H745       C1636   1.082       .  S
C746        H750   1.110       .  S
C746        H751   1.110       .  S
C746       H1648   1.111       .  S
H752       C1642   1.111       .  S
C753        C754   1.404       .  A
C753        C758   1.409       .  A
C753        H760   1.084       .  S
C754        C755   1.410       .  A
C755        C756   1.397       .  A
C755        C762   1.509       .  S
C756        C757   1.403       .  A
C756        H761   1.084       .  S
C757        C758   1.414       .  A
C758        C759   1.507       .  S
C759        H763   1.111       .  S
C759        H764   1.110       .  S
C759        H765   1.107       .  S
C762        H766   1.110       .  S
C762        H767   1.111       .  S
C762        H768   1.111       .  S
C769        C770   1.403       .  A
C769        C774   1.410       .  A
C769        H776   1.083       .  S
C770        C771   1.411       .  A
C771        C772   1.393       .  A
C771        C778   1.507       .  S
C772        C773   1.409       .  A
C772        H777   1.084       .  S
C773        C774   1.421       .  A
C774        C775   1.506       .  S
C775        H779   1.110       .  S
C775        H780   1.110       .  S
C775        H781   1.110       .  S
C778        H782   1.102       .  S
C778        H783   1.111       .  S
C778        H784   1.110       .  S
C785        C786   1.405       .  A
C785        C790   1.399       .  A
C785        H792   1.084       .  S
C786        C787   1.418       .  A
C787        C788   1.410       .  A
C787        C794   1.506       .  S
C788        C789   1.404       .  A
C788        H793   1.084       .  S
C789        C790   1.413       .  A
C790        C791   1.505       .  S
C791        H795   1.111       .  S
C791        H796   1.103       .  S
C791        H797   1.103       .  S
C794        H798   1.110       .  S
C794        H799   1.110       .  S
C794        H800   1.111       .  S
C801        C802   1.407       .  A
C801        C806   1.408       .  A
C801        H808   1.084       .  S
C802        C803   1.416       .  A
C803        C804   1.400       .  A
C803       C1706   1.508       .  S
C804        C805   1.402       .  A
C804        H809   1.085       .  S
C805        C806   1.414       .  A
C806        C807   1.506       .  S
C807        H811   1.111       .  S
C807        H812   1.109       .  S
C807        H813   1.110       .  S
C810       C1699   1.508       .  S
C810        H814   1.107   1_655  S
C810        H815   1.110   1_655  S
C810        H816   1.110       .  S
C817        C818   1.402       .  A
C817        C822   1.400       .  A
C817        H824   1.084       .  S
C818        C819   1.410       .  A
C819        C820   1.405       .  A
C819       C1722   1.503       .  S
C820        C821   1.401       .  A
C820        H825   1.084       .  S
C821        C822   1.411       .  A
C822        C823   1.508       .  S
C823        H827   1.111       .  S
C823        H828   1.110       .  S
C823        H829   1.110       .  S
C826       C1715   1.503       .  S
C826        H830   1.109       .  S
C826        H831   1.104       .  S
C826        H832   1.111       .  S
C833        C834   1.400       .  A
C833        C838   1.398       .  A
C833        H840   1.085       .  S
C834        C835   1.411       .  A
C835        C836   1.407       .  A
C835        C842   1.506       .  S
C836        C837   1.408       .  A
C836        H841   1.083       .  S
C837        C838   1.421       .  A
C838        C839   1.513       .  S
C839        H843   1.111       .  S
C839        H844   1.107       .  S
C839        H845   1.110       .  S
C842        H846   1.110       .  S
C842        H847   1.110       .  S
C842        H848   1.111       .  S
C849        C850   1.408       .  A
C849        C854   1.412       .  A
C849        H856   1.084       .  S
C850        C851   1.412       .  A
C851        C852   1.398       .  A
C851        C858   1.506       .  S
C852        C853   1.402       .  A
C852        H857   1.081       .  S
C853        C854   1.412       .  A
C854        C855   1.505       .  S
C855        H859   1.111       .  S
C855        H860   1.109       .  S
C855        H861   1.110       .  S
C858        H862   1.110       .  S
C858        H863   1.107       .  S
C858        H864   1.111       .  S
C865        C866   1.409       .  A
C865        C870   1.395       .  A
C865        H872   1.084       .  S
C866        C867   1.420       .  A
C867        C868   1.413       .  A
C867        C874   1.506       .  S
C868        C869   1.405       .  A
C868        H873   1.083       .  S
C869        C870   1.412       .  A
C870       C1767   1.510       .  S
C871       C1766   1.510       .  S
C871        H875   1.110       .  S
C871        H876   1.110       .  S
C871        H877   1.107       .  S
C874        H878   1.110       .  S
C874        H879   1.110       .  S
C874        H880   1.111       .  S
C881        C882   1.408       .  A
C881        C886   1.407       .  A
C881        H888   1.084       .  S
C882        C883   1.420       .  A
C883        C884   1.399       .  A
C883        C890   1.511       .  S
C884        C885   1.404       .  A
C884        H889   1.084       .  S
C885        C886   1.416       .  A
C886       C1783   1.505       .  S
C887       C1782   1.505       .  S
C887        H891   1.108       .  S
C887        H892   1.109       .  S
C887        H893   1.110       .  S
C890        H894   1.111       .  S
C890        H895   1.109       .  S
C890        H896   1.111       .  S
N897        C902   1.358   1_556  A
N897        C901   1.356   1_556  A
N897        H929   1.038       .  S
N898       C1353   1.354       .  A
N898        C906   1.354       .  A
N899        C904   1.354       .  A
N899        C903   1.354       .  A
N899        H930   1.032       .  S
N900        C907   1.349       .  A
N900       C1356   1.349       .  A
C901        C909   1.389       .  A
C901        C917   1.425   1_554  A
C902        C918   1.415   1_554  A
C902        C910   1.384       .  A
C903        C911   1.389       .  A
C903        C920   1.415       .  A
C904        C919   1.415       .  A
C904        C912   1.387       .  A
C905       N1346   1.354       .  A
C905        C917   1.425       .  A
C905       C1361   1.390       .  A
C906        C920   1.416       .  A
C906        C914   1.383       .  A
C907        C915   1.386       .  A
C907        C918   1.408       .  A
C908       N1348   1.349       .  A
C908       C1364   1.387       .  A
C908        C919   1.411       .  A
C909        C910   1.372       .  A
C909        H921   1.078       .  S
C910        H922   1.082       .  S
C911        C912   1.372       .  A
C911        H923   1.082       .  S
C912        H924   1.081       .  S
C913       C1353   1.390       .  A
C913        C914   1.378       .  A
C913        H925   1.081       .  S
C914        H926   1.082       .  S
C915        C916   1.376       .  A
C915        H927   1.082       .  S
C916       C1356   1.387       .  A
C916        H928   1.082       .  S
C917       C1433   1.506       .  S
C918       C1437   1.481       .  S
C919       C1027   1.475       .  S
C920       C1035   1.482       .  S
N931        C936   1.356       .  A
N931        H963   1.043       .  S
N932        C939   1.350       .  A
N932        C940   1.349   1_565  A
N933        C938   1.354       .  A
N933        H964   1.042       .  S
N934        C941   1.352   1_545  A
N934        C942   1.352       .  A
C935        C943   1.387       .  A
C935        C951   1.423       .  A
C936        C952   1.422       .  A
C936        C944   1.384       .  A
C937        C945   1.385       .  A
C937        C954   1.411       .  A
C938        C953   1.424       .  A
C938        C946   1.391       .  A
C939        C951   1.415       .  A
C939        C947   1.390       .  A
C940        C954   1.406       .  A
C940        C948   1.384       .  A
C941        C949   1.386       .  A
C941        C952   1.414       .  A
C942        C950   1.388       .  A
C942        C953   1.418       .  A
C943        H955   1.082       .  S
C944        H956   1.077       .  S
C945        H957   1.082       .  S
C946        H958   1.082       .  S
C947        C948   1.375   1_565  A
C947        H959   1.080       .  S
C948        H960   1.082       .  S
C949        C950   1.378   1_565  A
C949        H961   1.081       .  S
C950        H962   1.081       .  S
C951       C1054   1.501       .  S
C952       C1032   1.504       .  S
C953       C1008   1.501       .  S
C954        C966   1.478       .  S
O965        C981   1.271       .  A
O965       Zn971   1.994       .  S
C966        O982   1.271       .  A
C966       O1427   1.274       .  A
O967        C980   1.279       .  A
O967       Cd974   2.112       .  S
O968        C986   1.273       .  A
O968       Cd977   2.057       .  S
O969        C983   1.278       .  A
O969      Cd1421   2.089   1_554  S
O970        C981   1.275       .  A
O970       Cd973   2.087       .  S
Zn971       O982   2.010       .  S
Zn971       O984   1.977       .  S
Zn971       O976   1.924       .  S
O972        C983   1.274       .  A
O972       Cd977   2.073       .  S
Cd973      O1417   2.089       .  S
Cd973       O975   2.079       .  S
Cd973       O976   1.997       .  S
Cd974       O978   2.089       .  S
Cd974      O1435   2.090       .  S
Cd974       O976   2.030       .  S
O975        C985   1.278       .  A
O976      Cd1425   1.994       .  S
Cd977       O979   2.074       .  S
Cd977      O1424   1.994   1_554  S
O978        C985   1.276       .  A
O979       C1414   1.274   1_554  A
C980       C1314   1.496       .  S
C980        O984   1.271       .  A
C981       C1282   1.476       .  S
C983       C1298   1.481       .  S
C985       C1365   1.506       .  S
C986       C1330   1.490       .  S
C986        O987   1.278       .  A
O987      Cd1422   2.090   1_554  S
O988       C1004   1.274       .  A
O988       Zn994   2.031       .  S
C989       C1366   1.481       .  S
C989       O1453   1.274       .  A
C989       O1002   1.273       .  A
O990       C1003   1.277       .  A
O990      Cd1445   2.094   1_554  S
O991       C1009   1.273       .  A
O991      Cd1000   2.047       .  S
O992       C1006   1.276       .  A
O992       Cd996   2.081       .  S
O993       C1004   1.274       .  A
O993      Cd1444   2.069   1_554  S
Zn994      O1005   2.027       .  S
Zn994      O1007   1.983       .  S
Zn994      O1447   1.936   1_554  S
O995       C1006   1.272       .  A
O995      Cd1000   2.054       .  S
Cd996      O1441   2.069       .  S
Cd996       O998   2.056       .  S
Cd996       O999   1.991       .  S
Cd997      O1438   2.094       .  S
Cd997      O1001   2.096       .  S
Cd997      O1010   2.098       .  S
Cd997       O999   2.030       .  S
O998       C1008   1.273       .  A
O999      Zn1442   1.936       .  S
O999      Cd1000   1.986       .  S
Cd1000     O1002   2.069       .  S
O1001      C1008   1.277       .  A
C1003      C1221   1.495       .  S
C1003      O1007   1.273       .  A
C1004      C1253   1.481       .  S
O1005      C1437   1.274   1_554  A
C1006      C1269   1.467       .  S
C1009      C1234   1.491       .  S
C1009      O1010   1.277       .  A
O1011      C1475   1.273   1_554  A
O1011     Zn1017   2.019       .  S
C1012      C1202   1.470       .  S
C1012      O1028   1.272       .  A
C1012      O1025   1.273       .  A
O1013      C1026   1.283       .  A
O1013     Cd1468   2.131   1_554  S
O1014      C1032   1.275       .  A
O1014     Cd1023   2.062       .  S
O1015      C1029   1.272       .  A
O1015     Cd1019   2.058       .  S
O1016      C1027   1.272       .  A
O1016     Cd1019   2.062       .  S
Zn1017     O1028   2.010       .  S
Zn1017     O1030   1.989       .  S
Zn1017     O1470   1.931   1_554  S
O1018      C1029   1.275       .  A
O1018     Cd1023   2.074       .  S
Cd1019     O1021   2.047       .  S
Cd1019     O1022   1.994       .  S
Cd1020     O1461   2.131       .  S
Cd1020     O1024   2.120       .  S
Cd1020     O1033   2.113       .  S
Cd1020     O1022   2.033       .  S
O1021      C1031   1.271       .  A
O1022     Zn1465   1.931       .  S
O1022     Cd1023   1.997       .  S
Cd1023     O1473   2.073       .  S
O1024      C1031   1.282       .  A
O1025     Cd1471   2.073   1_554  S
C1026      C1173   1.494       .  S
C1026      O1030   1.271       .  A
C1027      O1459   1.273       .  A
C1029      C1186   1.481       .  S
C1031      C1154   1.498       .  S
C1032      O1033   1.281       .  A
O1034      C1050   1.273       .  A
O1034     Zn1040   2.021       .  S
C1035      O1499   1.276       .  A
C1035      O1048   1.274       .  A
O1036      C1049   1.279       .  A
O1036     Cd1491   2.110   1_554  S
O1037      C1055   1.274       .  A
O1037     Cd1046   2.067       .  S
O1038      C1052   1.274       .  A
O1038     Cd1042   2.075       .  S
O1039      C1050   1.270       .  A
O1039     Cd1490   2.048   1_554  S
Zn1040     O1051   2.031       .  S
Zn1040     O1053   2.007       .  S
Zn1040     O1493   1.941   1_554  S
O1041      C1052   1.273       .  A
O1041     Cd1046   2.057       .  S
Cd1042     O1487   2.048       .  S
Cd1042     O1044   2.056       .  S
Cd1042     O1045   2.001       .  S
Cd1043     O1484   2.110       .  S
Cd1043     O1047   2.096       .  S
Cd1043     O1056   2.108       .  S
Cd1043     O1045   2.025       .  S
O1044      C1054   1.273       .  A
O1045     Zn1488   1.941       .  S
O1045     Cd1046   1.990       .  S
Cd1046     O1048   2.073       .  S
O1047      C1054   1.278       .  A
C1049      C1090   1.500       .  S
C1049      O1053   1.275       .  A
C1050      C1122   1.475       .  S
O1051      C1483   1.276   1_554  A
C1052      C1138   1.468       .  S
C1055      C1109   1.494       .  S
C1055      O1056   1.280       .  A
C1057      C1062   1.403       .  A
C1057      C1250   1.489       .  S
C1058      C1059   1.411       .  A
C1058      C1333   1.494       .  S
C1059      C1060   1.402       .  A
C1059      H1064   1.084       .  S
C1060      C1317   1.488       .  S
C1061      C1062   1.401       .  A
C1061      C1266   1.481       .  S
C1062      H1063   1.085       .  S
C1065      C1070   1.402       .  A
C1065      C1205   1.485       .  S
C1066      C1067   1.402       .  A
C1066      C1125   1.491       .  S
C1067      C1068   1.402       .  A
C1067      H1072   1.084       .  S
C1068      C1141   1.488       .  S
C1069      C1070   1.402       .  A
C1069      C1189   1.489       .  S
C1070      H1071   1.085       .  S
C1073      C1074   1.418       .  A
C1073      C1078   1.409       .  A
C1073      C1093   1.496       .  S
C1074      C1075   1.407       .  A
C1074      C1170   1.498       .  S
C1075      C1076   1.410       .  A
C1075      H1080   1.084       .  S
C1076      C1077   1.421       .  A
C1076      C1157   1.497       .  S
C1077      C1078   1.407       .  A
C1077      C1106   1.498       .  S
C1078      H1079   1.083       .  S
C1081      C1082   1.413       .  A
C1081      C1086   1.405       .  A
C1081      C1218   1.484       .  S
C1082      C1083   1.402       .  A
C1082      C1301   1.491       .  S
C1083      C1084   1.409       .  A
C1083      H1088   1.081       .  S
C1084      C1085   1.420       .  A
C1084      C1285   1.493       .  S
C1085      C1086   1.403       .  A
C1085      C1237   1.491       .  S
C1086      H1087   1.084       .  S
C1089      C1090   1.409       .  A
C1089      C1094   1.401       .  A
C1089      H1096   1.083       .  S
C1090      C1091   1.420       .  A
C1091      C1092   1.412       .  A
C1091      C1098   1.506       .  S
C1092      C1093   1.406       .  A
C1092      H1097   1.083       .  S
C1093      C1094   1.416       .  A
C1094      C1095   1.512       .  S
C1095      H1099   1.111       .  S
C1095      H1100   1.108       .  S
C1095      H1101   1.110       .  S
C1098      H1102   1.110       .  S
C1098      H1103   1.110       .  S
C1098      H1104   1.111       .  S
C1105      C1106   1.403       .  A
C1105      C1110   1.403       .  A
C1105      H1112   1.084       .  S
C1106      C1107   1.416       .  A
C1107      C1108   1.412       .  A
C1107      C1114   1.508       .  S
C1108      C1109   1.409       .  A
C1108      H1113   1.084       .  S
C1109      C1110   1.419       .  A
C1110      C1111   1.510       .  S
C1111      H1115   1.111       .  S
C1111      H1116   1.109       .  S
C1111      H1117   1.111       .  S
C1114      H1118   1.108       .  S
C1114      H1119   1.107       .  S
C1114      H1120   1.111       .  S
C1121      C1122   1.402       .  A
C1121      C1126   1.404       .  A
C1121      H1128   1.085       .  S
C1122      C1123   1.414       .  A
C1123      C1124   1.399       .  A
C1123      C1130   1.510       .  S
C1124      C1125   1.404       .  A
C1125      C1126   1.418       .  A
C1126      C1127   1.506       .  S
C1127      H1131   1.107       .  S
C1127      H1132   1.108       .  S
C1127      H1133   1.110       .  S
C1130      H1134   1.110       .  S
C1130      H1135   1.110       .  S
C1137      C1138   1.397       .  A
C1137      C1142   1.397       .  A
C1137      H1144   1.085       .  S
C1138      C1139   1.410       .  A
C1139      C1140   1.408       .  A
C1139      C1146   1.505       .  S
C1140      C1141   1.408       .  A
C1140      H1145   1.084       .  S
C1141      C1142   1.418       .  A
C1142      C1143   1.511       .  S
C1143      H1147   1.111       .  S
C1143      H1148   1.110       .  S
C1143      H1149   1.107       .  S
C1146      H1150   1.110       .  S
C1146      H1151   1.110       .  S
C1146      H1152   1.111       .  S
C1153      C1154   1.408       .  A
C1153      C1158   1.409       .  A
C1153      H1160   1.084       .  S
C1154      C1155   1.426       .  A
C1155      C1156   1.402       .  A
C1155      C1162   1.511       .  S
C1156      C1157   1.401       .  A
C1156      H1161   1.084       .  S
C1157      C1158   1.416       .  A
C1158      C1159   1.504       .  S
C1159      H1163   1.110       .  S
C1159      H1164   1.110       .  S
C1159      H1165   1.108       .  S
C1162      H1166   1.109       .  S
C1162      H1167   1.111       .  S
C1162      H1168   1.111       .  S
C1169      C1170   1.400       .  A
C1169      C1174   1.401       .  A
C1169      H1176   1.083       .  S
C1170      C1171   1.415       .  A
C1171      C1172   1.414       .  A
C1171      C1178   1.505       .  S
C1172      C1173   1.408       .  A
C1172      H1177   1.084       .  S
C1173      C1174   1.421       .  A
C1174      C1175   1.510       .  S
C1175      H1179   1.111       .  S
C1175      H1180   1.108       .  S
C1175      H1181   1.110       .  S
C1178      H1182   1.109       .  S
C1178      H1183   1.110       .  S
C1178      H1184   1.110       .  S
C1185      C1186   1.404       .  A
C1185      C1190   1.404       .  A
C1185      H1192   1.085       .  S
C1186      C1187   1.414       .  A
C1187      C1188   1.398       .  A
C1187      C1194   1.504       .  S
C1188      C1189   1.402       .  A
C1189      C1190   1.416       .  A
C1190      C1191   1.505       .  S
C1191      H1195   1.108       .  S
C1191      H1196   1.108       .  S
C1191      H1197   1.110       .  S
C1194      H1198   1.110       .  S
C1194      H1199   1.110       .  S
C1201      C1202   1.404       .  A
C1201      C1206   1.409       .  A
C1201      H1208   1.084       .  S
C1202      C1203   1.410       .  A
C1203      C1204   1.397       .  A
C1203      C1210   1.509       .  S
C1204      C1205   1.403       .  A
C1204      H1209   1.084       .  S
C1205      C1206   1.414       .  A
C1206      C1207   1.507       .  S
C1207      H1211   1.111       .  S
C1207      H1212   1.110       .  S
C1207      H1213   1.107       .  S
C1210      H1214   1.110       .  S
C1210      H1215   1.111       .  S
C1210      H1216   1.111       .  S
C1217      C1218   1.403       .  A
C1217      C1222   1.410       .  A
C1217      H1224   1.083       .  S
C1218      C1219   1.411       .  A
C1219      C1220   1.393       .  A
C1219      C1226   1.507       .  S
C1220      C1221   1.409       .  A
C1220      H1225   1.084       .  S
C1221      C1222   1.421       .  A
C1222      C1223   1.506       .  S
C1223      H1227   1.110       .  S
C1223      H1228   1.110       .  S
C1223      H1229   1.110       .  S
C1226      H1230   1.102       .  S
C1226      H1231   1.111       .  S
C1226      H1232   1.110       .  S
C1233      C1234   1.405       .  A
C1233      C1238   1.399       .  A
C1233      H1240   1.084       .  S
C1234      C1235   1.418       .  A
C1235      C1236   1.410       .  A
C1235      C1242   1.506       .  S
C1236      C1237   1.404       .  A
C1236      H1241   1.084       .  S
C1237      C1238   1.413       .  A
C1238      C1239   1.505       .  S
C1239      H1243   1.111       .  S
C1239      H1244   1.103       .  S
C1239      H1245   1.103       .  S
C1242      H1246   1.110       .  S
C1242      H1247   1.110       .  S
C1242      H1248   1.111       .  S
C1249      C1250   1.407       .  A
C1249      C1254   1.408       .  A
C1249      H1256   1.084       .  S
C1250      C1251   1.416       .  A
C1251      C1252   1.400       .  A
C1252      C1253   1.402       .  A
C1252      H1257   1.085       .  S
C1253      C1254   1.414       .  A
C1254      C1255   1.506       .  S
C1255      H1259   1.111       .  S
C1255      H1260   1.109       .  S
C1255      H1261   1.110       .  S
C1258      H1262   1.107       .  S
C1258      H1263   1.110       .  S
C1258      H1264   1.110       .  S
C1265      C1266   1.402       .  A
C1265      C1270   1.400       .  A
C1265      H1272   1.084       .  S
C1266      C1267   1.410       .  A
C1267      C1268   1.405       .  A
C1268      C1269   1.401       .  A
C1268      H1273   1.084       .  S
C1269      C1270   1.411       .  A
C1270      C1271   1.508       .  S
C1271      H1275   1.111       .  S
C1271      H1276   1.110       .  S
C1271      H1277   1.110       .  S
C1274      H1278   1.109       .  S
C1274      H1279   1.104       .  S
C1274      H1280   1.111       .  S
C1281      C1282   1.400       .  A
C1281      C1286   1.398       .  A
C1281      H1288   1.085       .  S
C1282      C1283   1.411       .  A
C1283      C1284   1.407       .  A
C1283      C1290   1.506       .  S
C1284      C1285   1.408       .  A
C1284      H1289   1.083       .  S
C1285      C1286   1.421       .  A
C1286      C1287   1.513       .  S
C1287      H1291   1.111       .  S
C1287      H1292   1.107       .  S
C1287      H1293   1.110       .  S
C1290      H1294   1.110       .  S
C1290      H1295   1.110       .  S
C1290      H1296   1.111       .  S
C1297      C1298   1.408       .  A
C1297      C1302   1.412       .  A
C1297      H1304   1.084       .  S
C1298      C1299   1.412       .  A
C1299      C1300   1.398       .  A
C1299      C1306   1.506       .  S
C1300      C1301   1.402       .  A
C1300      H1305   1.081       .  S
C1301      C1302   1.412       .  A
C1302      C1303   1.505       .  S
C1303      H1307   1.111       .  S
C1303      H1308   1.109       .  S
C1303      H1309   1.110       .  S
C1306      H1310   1.110       .  S
C1306      H1311   1.107       .  S
C1306      H1312   1.111       .  S
C1313      C1314   1.409       .  A
C1313      C1318   1.395       .  A
C1313      H1320   1.084       .  S
C1314      C1315   1.420       .  A
C1315      C1316   1.413       .  A
C1315      C1322   1.506       .  S
C1316      C1317   1.405       .  A
C1316      H1321   1.083       .  S
C1317      C1318   1.412       .  A
C1319      H1323   1.110       .  S
C1319      H1324   1.110       .  S
C1319      H1325   1.107       .  S
C1322      H1326   1.110       .  S
C1322      H1327   1.110       .  S
C1322      H1328   1.111       .  S
C1329      C1330   1.408       .  A
C1329      C1334   1.407       .  A
C1329      H1336   1.084       .  S
C1330      C1331   1.420       .  A
C1331      C1332   1.399       .  A
C1331      C1338   1.511       .  S
C1332      C1333   1.404       .  A
C1332      H1337   1.084       .  S
C1333      C1334   1.416       .  A
C1335      H1339   1.108       .  S
C1335      H1340   1.109       .  S
C1335      H1341   1.110       .  S
C1338      H1342   1.111       .  S
C1338      H1343   1.109       .  S
C1338      H1344   1.111       .  S
N1345      C1350   1.358       .  A
N1345      C1349   1.356       .  A
N1345      H1377   1.038       .  S
N1346      C1354   1.354       .  A
N1347      C1352   1.354       .  A
N1347      C1351   1.354       .  A
N1347      H1378   1.032       .  S
N1348      C1355   1.349       .  A
C1349      C1357   1.389       .  A
C1349      C1365   1.425       .  A
C1350      C1366   1.415       .  A
C1350      C1358   1.384       .  A
C1351      C1359   1.389   1_556  A
C1351      C1368   1.415       .  A
C1352      C1367   1.415       .  A
C1352      C1360   1.387   1_556  A
C1353      C1365   1.425       .  A
C1354      C1368   1.416       .  A
C1354      C1362   1.383       .  A
C1355      C1363   1.386       .  A
C1355      C1366   1.408       .  A
C1356      C1367   1.411       .  A
C1357      C1358   1.372       .  A
C1357      H1369   1.078       .  S
C1358      H1370   1.082       .  S
C1359      C1360   1.372       .  A
C1359      H1371   1.082       .  S
C1360      H1372   1.081       .  S
C1361      C1362   1.378       .  A
C1361      H1373   1.081       .  S
C1362      H1374   1.082       .  S
C1363      C1364   1.376       .  A
C1363      H1375   1.082       .  S
C1364      H1376   1.082       .  S
C1367      C1475   1.475       .  S
C1368      C1483   1.482       .  S
N1379      C1384   1.356       .  A
N1379      H1411   1.043   1_556  S
N1380      C1387   1.350       .  A
N1380      C1388   1.349   1_565  A
N1381      C1386   1.354       .  A
N1381      H1412   1.042   1_556  S
N1382      C1389   1.352   1_545  A
N1382      C1390   1.352       .  A
C1383      C1391   1.387       .  A
C1383      C1399   1.423       .  A
C1384      C1400   1.422       .  A
C1384      C1392   1.384       .  A
C1385      C1393   1.385       .  A
C1385      C1402   1.411       .  A
C1386      C1401   1.424       .  A
C1386      C1394   1.391       .  A
C1387      C1399   1.415       .  A
C1387      C1395   1.390   1_556  A
C1388      C1402   1.406       .  A
C1388      C1396   1.384   1_556  A
C1389      C1397   1.386   1_556  A
C1389      C1400   1.414       .  A
C1390      C1398   1.388   1_556  A
C1390      C1401   1.418       .  A
C1391      H1403   1.082       .  S
C1392      H1404   1.077       .  S
C1393      H1405   1.082       .  S
C1394      H1406   1.082       .  S
C1395      C1396   1.375   1_565  A
C1395      H1407   1.080       .  S
C1396      H1408   1.082       .  S
C1397      C1398   1.378   1_565  A
C1397      H1409   1.081       .  S
C1398      H1410   1.081       .  S
C1399      C1502   1.501       .  S
C1400      C1480   1.504       .  S
C1401      C1456   1.501       .  S
C1402      C1414   1.478       .  S
O1413      C1429   1.271       .  A
O1413     Zn1419   1.994       .  S
C1414      O1430   1.271       .  A
O1415      C1428   1.279       .  A
O1415     Cd1422   2.112       .  S
O1416      C1434   1.273       .  A
O1416     Cd1425   2.057       .  S
O1417      C1431   1.278       .  A
O1418      C1429   1.275       .  A
O1418     Cd1421   2.087       .  S
Zn1419     O1430   2.010       .  S
Zn1419     O1432   1.977       .  S
Zn1419     O1424   1.924       .  S
O1420      C1431   1.274       .  A
O1420     Cd1425   2.073       .  S
Cd1421     O1423   2.079       .  S
Cd1421     O1424   1.997       .  S
Cd1422     O1426   2.089       .  S
Cd1422     O1424   2.030       .  S
O1423      C1433   1.278       .  A
Cd1425     O1427   2.074       .  S
O1426      C1433   1.276       .  A
C1428      C1762   1.496       .  S
C1428      O1432   1.271       .  A
C1429      C1730   1.476       .  S
C1431      C1746   1.481       .  S
C1434      C1778   1.490       .  S
C1434      O1435   1.278       .  A
O1436      C1452   1.274       .  A
O1436     Zn1442   2.031       .  S
C1437      O1450   1.273       .  A
O1438      C1451   1.277       .  A
O1439      C1457   1.273       .  A
O1439     Cd1448   2.047       .  S
O1440      C1454   1.276       .  A
O1440     Cd1444   2.081       .  S
O1441      C1452   1.274       .  A
Zn1442     O1453   2.027       .  S
Zn1442     O1455   1.983       .  S
O1443      C1454   1.272       .  A
O1443     Cd1448   2.054       .  S
Cd1444     O1446   2.056       .  S
Cd1444     O1447   1.991       .  S
Cd1445     O1449   2.096       .  S
Cd1445     O1458   2.098       .  S
Cd1445     O1447   2.030       .  S
O1446      C1456   1.273       .  A
O1447     Cd1448   1.986       .  S
Cd1448     O1450   2.069       .  S
O1449      C1456   1.277       .  A
C1451      C1669   1.495       .  S
C1451      O1455   1.273       .  A
C1452      C1701   1.481       .  S
C1454      C1717   1.467       .  S
C1457      C1682   1.491       .  S
C1457      O1458   1.277       .  A
O1459     Zn1465   2.019       .  S
C1460      C1650   1.470       .  S
C1460      O1476   1.272       .  A
C1460      O1473   1.273       .  A
O1461      C1474   1.283       .  A
O1462      C1480   1.275       .  A
O1462     Cd1471   2.062       .  S
O1463      C1477   1.272       .  A
O1463     Cd1467   2.058       .  S
O1464      C1475   1.272       .  A
O1464     Cd1467   2.062       .  S
Zn1465     O1476   2.010       .  S
Zn1465     O1478   1.989       .  S
O1466      C1477   1.275       .  A
O1466     Cd1471   2.074       .  S
Cd1467     O1469   2.047       .  S
Cd1467     O1470   1.994       .  S
Cd1468     O1472   2.120       .  S
Cd1468     O1481   2.113       .  S
Cd1468     O1470   2.033       .  S
O1469      C1479   1.271       .  A
O1470     Cd1471   1.997       .  S
O1472      C1479   1.282       .  A
C1474      C1621   1.494       .  S
C1474      O1478   1.271       .  A
C1477      C1634   1.481       .  S
C1479      C1602   1.498       .  S
C1480      O1481   1.281       .  A
O1482      C1498   1.273       .  A
O1482     Zn1488   2.021       .  S
C1483      O1496   1.274       .  A
O1484      C1497   1.279       .  A
O1485      C1503   1.274       .  A
O1485     Cd1494   2.067       .  S
O1486      C1500   1.274       .  A
O1486     Cd1490   2.075       .  S
O1487      C1498   1.270       .  A
Zn1488     O1499   2.031       .  S
Zn1488     O1501   2.007       .  S
O1489      C1500   1.273       .  A
O1489     Cd1494   2.057       .  S
Cd1490     O1492   2.056       .  S
Cd1490     O1493   2.001       .  S
Cd1491     O1495   2.096       .  S
Cd1491     O1504   2.108       .  S
Cd1491     O1493   2.025       .  S
O1492      C1502   1.273       .  A
O1493     Cd1494   1.990       .  S
Cd1494     O1496   2.073       .  S
O1495      C1502   1.278       .  A
C1497      C1538   1.500       .  S
C1497      O1501   1.275       .  A
C1498      C1570   1.475       .  S
C1500      C1586   1.468       .  S
C1503      C1557   1.494       .  S
C1503      O1504   1.280       .  A
C1505      C1510   1.403       .  A
C1505      C1698   1.489       .  S
C1506      C1507   1.411       .  A
C1506      C1781   1.494       .  S
C1507      C1508   1.402       .  A
C1507      H1512   1.084       .  S
C1508      C1765   1.488       .  S
C1509      C1510   1.401       .  A
C1509      C1714   1.481       .  S
C1510      H1511   1.085       .  S
C1513      C1518   1.402       .  A
C1513      C1653   1.485       .  S
C1514      C1515   1.402       .  A
C1514      C1573   1.491       .  S
C1515      C1516   1.402       .  A
C1515      H1520   1.084       .  S
C1516      C1589   1.488       .  S
C1517      C1518   1.402       .  A
C1517      C1637   1.489       .  S
C1518      H1519   1.085       .  S
C1521      C1522   1.418       .  A
C1521      C1526   1.409       .  A
C1521      C1541   1.496       .  S
C1522      C1523   1.407       .  A
C1522      C1618   1.498       .  S
C1523      C1524   1.410       .  A
C1523      H1528   1.084       .  S
C1524      C1525   1.421       .  A
C1524      C1605   1.497       .  S
C1525      C1526   1.407       .  A
C1525      C1554   1.498       .  S
C1526      H1527   1.083       .  S
C1529      C1530   1.413       .  A
C1529      C1534   1.405       .  A
C1529      C1666   1.484       .  S
C1530      C1531   1.402       .  A
C1530      C1749   1.491       .  S
C1531      C1532   1.409       .  A
C1531      H1536   1.081       .  S
C1532      C1533   1.420       .  A
C1532      C1733   1.493       .  S
C1533      C1534   1.403       .  A
C1533      C1685   1.491       .  S
C1534      H1535   1.084       .  S
C1537      C1538   1.409       .  A
C1537      C1542   1.401       .  A
C1537      H1544   1.083       .  S
C1538      C1539   1.420       .  A
C1539      C1540   1.412       .  A
C1539      C1546   1.506       .  S
C1540      C1541   1.406       .  A
C1540      H1545   1.083       .  S
C1541      C1542   1.416       .  A
C1542      C1543   1.512       .  S
C1543      H1547   1.111       .  S
C1543      H1548   1.108       .  S
C1543      H1549   1.110       .  S
C1546      H1550   1.110       .  S
C1546      H1551   1.110       .  S
C1546      H1552   1.111       .  S
C1553      C1554   1.403       .  A
C1553      C1558   1.403       .  A
C1553      H1560   1.084       .  S
C1554      C1555   1.416       .  A
C1555      C1556   1.412       .  A
C1555      C1562   1.508       .  S
C1556      C1557   1.409       .  A
C1556      H1561   1.084       .  S
C1557      C1558   1.419       .  A
C1558      C1559   1.510       .  S
C1559      H1563   1.111       .  S
C1559      H1564   1.109       .  S
C1559      H1565   1.111       .  S
C1562      H1566   1.108       .  S
C1562      H1567   1.107       .  S
C1562      H1568   1.111       .  S
C1569      C1570   1.402       .  A
C1569      C1574   1.404       .  A
C1569      H1576   1.085       .  S
C1570      C1571   1.414       .  A
C1571      C1572   1.399       .  A
C1571      C1578   1.510       .  S
C1572      C1573   1.404       .  A
C1573      C1574   1.418       .  A
C1574      C1575   1.506       .  S
C1575      H1579   1.107       .  S
C1575      H1580   1.108       .  S
C1575      H1581   1.110       .  S
C1578      H1582   1.110       .  S
C1578      H1583   1.110       .  S
C1585      C1586   1.397       .  A
C1585      C1590   1.397       .  A
C1585      H1592   1.085       .  S
C1586      C1587   1.410       .  A
C1587      C1588   1.408       .  A
C1587      C1594   1.505       .  S
C1588      C1589   1.408       .  A
C1588      H1593   1.084       .  S
C1589      C1590   1.418       .  A
C1590      C1591   1.511       .  S
C1591      H1595   1.111       .  S
C1591      H1596   1.110       .  S
C1591      H1597   1.107       .  S
C1594      H1598   1.110       .  S
C1594      H1599   1.110       .  S
C1594      H1600   1.111       .  S
C1601      C1602   1.408       .  A
C1601      C1606   1.409       .  A
C1601      H1608   1.084       .  S
C1602      C1603   1.426       .  A
C1603      C1604   1.402       .  A
C1603      C1610   1.511       .  S
C1604      C1605   1.401       .  A
C1604      H1609   1.084       .  S
C1605      C1606   1.416       .  A
C1606      C1607   1.504       .  S
C1607      H1611   1.110       .  S
C1607      H1612   1.110       .  S
C1607      H1613   1.108       .  S
C1610      H1614   1.109       .  S
C1610      H1615   1.111       .  S
C1610      H1616   1.111       .  S
C1617      C1618   1.400       .  A
C1617      C1622   1.401       .  A
C1617      H1624   1.083       .  S
C1618      C1619   1.415       .  A
C1619      C1620   1.414       .  A
C1619      C1626   1.505       .  S
C1620      C1621   1.408       .  A
C1620      H1625   1.084       .  S
C1621      C1622   1.421       .  A
C1622      C1623   1.510       .  S
C1623      H1627   1.111       .  S
C1623      H1628   1.108       .  S
C1623      H1629   1.110       .  S
C1626      H1630   1.109       .  S
C1626      H1631   1.110       .  S
C1626      H1632   1.110       .  S
C1633      C1634   1.404       .  A
C1633      C1638   1.404       .  A
C1633      H1640   1.085       .  S
C1634      C1635   1.414       .  A
C1635      C1636   1.398       .  A
C1635      C1642   1.504       .  S
C1636      C1637   1.402       .  A
C1637      C1638   1.416       .  A
C1638      C1639   1.505       .  S
C1639      H1643   1.108       .  S
C1639      H1644   1.108       .  S
C1639      H1645   1.110       .  S
C1642      H1646   1.110       .  S
C1642      H1647   1.110       .  S
C1649      C1650   1.404       .  A
C1649      C1654   1.409       .  A
C1649      H1656   1.084       .  S
C1650      C1651   1.410       .  A
C1651      C1652   1.397       .  A
C1651      C1658   1.509       .  S
C1652      C1653   1.403       .  A
C1652      H1657   1.084       .  S
C1653      C1654   1.414       .  A
C1654      C1655   1.507       .  S
C1655      H1659   1.111       .  S
C1655      H1660   1.110       .  S
C1655      H1661   1.107       .  S
C1658      H1662   1.110       .  S
C1658      H1663   1.111       .  S
C1658      H1664   1.111       .  S
C1665      C1666   1.403       .  A
C1665      C1670   1.410       .  A
C1665      H1672   1.083       .  S
C1666      C1667   1.411       .  A
C1667      C1668   1.393       .  A
C1667      C1674   1.507       .  S
C1668      C1669   1.409       .  A
C1668      H1673   1.084       .  S
C1669      C1670   1.421       .  A
C1670      C1671   1.506       .  S
C1671      H1675   1.110       .  S
C1671      H1676   1.110       .  S
C1671      H1677   1.110       .  S
C1674      H1678   1.102       .  S
C1674      H1679   1.111       .  S
C1674      H1680   1.110       .  S
C1681      C1682   1.405       .  A
C1681      C1686   1.399       .  A
C1681      H1688   1.084       .  S
C1682      C1683   1.418       .  A
C1683      C1684   1.410       .  A
C1683      C1690   1.506       .  S
C1684      C1685   1.404       .  A
C1684      H1689   1.084       .  S
C1685      C1686   1.413       .  A
C1686      C1687   1.505       .  S
C1687      H1691   1.111       .  S
C1687      H1692   1.103       .  S
C1687      H1693   1.103       .  S
C1690      H1694   1.110       .  S
C1690      H1695   1.110       .  S
C1690      H1696   1.111       .  S
C1697      C1698   1.407       .  A
C1697      C1702   1.408       .  A
C1697      H1704   1.084       .  S
C1698      C1699   1.416       .  A
C1699      C1700   1.400       .  A
C1700      C1701   1.402       .  A
C1700      H1705   1.085       .  S
C1701      C1702   1.414       .  A
C1702      C1703   1.506       .  S
C1703      H1707   1.111       .  S
C1703      H1708   1.109       .  S
C1703      H1709   1.110       .  S
C1706      H1710   1.107       .  S
C1706      H1711   1.110       .  S
C1706      H1712   1.110       .  S
C1713      C1714   1.402       .  A
C1713      C1718   1.400       .  A
C1713      H1720   1.084       .  S
C1714      C1715   1.410       .  A
C1715      C1716   1.405       .  A
C1716      C1717   1.401       .  A
C1716      H1721   1.084       .  S
C1717      C1718   1.411       .  A
C1718      C1719   1.508       .  S
C1719      H1723   1.111       .  S
C1719      H1724   1.110       .  S
C1719      H1725   1.110       .  S
C1722      H1726   1.109       .  S
C1722      H1727   1.104       .  S
C1722      H1728   1.111       .  S
C1729      C1730   1.400       .  A
C1729      C1734   1.398       .  A
C1729      H1736   1.085       .  S
C1730      C1731   1.411       .  A
C1731      C1732   1.407       .  A
C1731      C1738   1.506       .  S
C1732      C1733   1.408       .  A
C1732      H1737   1.083       .  S
C1733      C1734   1.421       .  A
C1734      C1735   1.513       .  S
C1735      H1739   1.111       .  S
C1735      H1740   1.107       .  S
C1735      H1741   1.110       .  S
C1738      H1742   1.110       .  S
C1738      H1743   1.110       .  S
C1738      H1744   1.111       .  S
C1745      C1746   1.408       .  A
C1745      C1750   1.412       .  A
C1745      H1752   1.084       .  S
C1746      C1747   1.412       .  A
C1747      C1748   1.398       .  A
C1747      C1754   1.506       .  S
C1748      C1749   1.402       .  A
C1748      H1753   1.081       .  S
C1749      C1750   1.412       .  A
C1750      C1751   1.505       .  S
C1751      H1755   1.111       .  S
C1751      H1756   1.109       .  S
C1751      H1757   1.110       .  S
C1754      H1758   1.110       .  S
C1754      H1759   1.107       .  S
C1754      H1760   1.111       .  S
C1761      C1762   1.409       .  A
C1761      C1766   1.395       .  A
C1761      H1768   1.084       .  S
C1762      C1763   1.420       .  A
C1763      C1764   1.413       .  A
C1763      C1770   1.506       .  S
C1764      C1765   1.405       .  A
C1764      H1769   1.083       .  S
C1765      C1766   1.412       .  A
C1767      H1771   1.110       .  S
C1767      H1772   1.110       .  S
C1767      H1773   1.107       .  S
C1770      H1774   1.110       .  S
C1770      H1775   1.110       .  S
C1770      H1776   1.111       .  S
C1777      C1778   1.408       .  A
C1777      C1782   1.407       .  A
C1777      H1784   1.084       .  S
C1778      C1779   1.420       .  A
C1779      C1780   1.399       .  A
C1779      C1786   1.511       .  S
C1780      C1781   1.404       .  A
C1780      H1785   1.084       .  S
C1781      C1782   1.416       .  A
C1783      H1787   1.108       .  S
C1783      H1788   1.109       .  S
C1783      H1789   1.110       .  S
C1786      H1790   1.111       .  S
C1786      H1791   1.109       .  S
C1786      H1792   1.111       .  S
