geometry optimzed in LAMMPS
_audit_creation_date              2020-11-30 
_audit_creation_method            'lammps2cif' 
_symmetry_space_group_name_H-M    'P1' 
_symmetry_Int_Tables_number       1 
_symmetry_cell_setting            triclinic 
loop_ 
_symmetry_equiv_pos_as_xyz 
  x,y,z 
_cell_length_a                    33.37807939 
_cell_length_b                    33.699197561577876 
_cell_length_c                    45.38613071533503 
_cell_angle_alpha                 90.96109877509205 
_cell_angle_beta                  90.71427009234016 
_cell_angle_gamma                 81.3716463103715 
loop_ 
_atom_site_label 
_atom_site_type_symbol 
_atom_site_fract_x 
_atom_site_fract_y 
_atom_site_fract_z 
_atom_site_charge 
O1          O  0.19556555  0.33730607  0.60673322    -0.77900
C2          C  0.32536944  0.32850856  0.61676489     0.83100
O3          O  0.25861578  0.21679362  0.55091793    -0.79000
O4          O  0.34024282  0.20050583  0.64204258    -0.80500
O5          O  0.22279476  0.25130872  0.69115301    -0.80300
O6          O  0.16649020  0.30672822  0.64216295    -0.78900
Zn7        Zn  0.24663339  0.30013251  0.59574583     1.55700
O8          O  0.28751536  0.25999068  0.69073693    -0.80300
Cd9        Cd  0.20573184  0.25378669  0.64702414     1.59700
Cd10       Cd  0.25969924  0.20289616  0.59566565     1.59600
O11         O  0.17461713  0.20646839  0.63672741    -0.80300
O12         O  0.25338131  0.25319964  0.62069993    -1.90800
Cd13       Cd  0.30208885  0.25408461  0.64642509     1.59900
O14         O  0.21161437  0.17146980  0.60200993    -0.80300
O15         O  0.33298897  0.30037490  0.63530559    -0.78900
C16         C  0.24934229  0.25053017  0.53823750     0.83600
C17         C  0.16725317  0.33624070  0.62515645     0.83300
O18         O  0.29394873  0.33154021  0.60018438    -0.77900
C19         C  0.25547963  0.25595719  0.70467280     0.84100
O20         O  0.24289136  0.28348660  0.55287051    -0.78000
C21         C  0.18091489  0.17665031  0.61886910     0.84200
C22         C  0.34048818  0.16882816  0.62634818     0.84500
O23         O  0.31250357  0.16497672  0.60752452    -0.80400
C24         C  0.03354638  0.46940971  0.63425304     0.30600
C25         C  0.47041948  0.03228448  0.63519148     0.30600
C26         C  0.49548094  0.46332789  0.61578079    -0.05600
C27         C  0.01445081  0.48022107  0.66442615    -0.06400
C28         C  0.04300368  0.00940597  0.62273587    -0.06300
C29         C  0.46392836  0.49607569  0.61500161    -0.05600
C30         C  0.48362705  0.01291428  0.66499450    -0.06400
C31         C  0.01143654  0.04148973  0.62285912    -0.06300
C32         C  0.42961873  0.48108232  0.60526848    -0.31700
N33         N  0.43771026  0.44052879  0.60367370     0.14800
C34         C  0.47711252  0.42958182  0.61102188    -0.31700
H35         H  0.49027414  0.39906279  0.61628093     0.16800
C36         C  0.47360813  0.02050503  0.69416188    -0.30600
N37         N  0.99632491  0.49244232  0.71094375     0.13600
C38         C  0.02107813  0.46745291  0.69302637    -0.30600
C39         C  0.02822871  0.07407295  0.61284459    -0.30900
N40         N  0.06858049  0.06309402  0.60887378     0.14100
H41         H  0.01341226  0.10444461  0.60971528     0.16700
C42         C  0.07779271  0.02343993  0.61433182    -0.30900
H43         H  0.10822666  0.00695059  0.61492472     0.16700
H44         H  0.04338931  0.44298145  0.70049318     0.16700
H45         H  0.39987311  0.49775756  0.60289067     0.16800
H46         H  0.45197715  0.04504916  0.70267376     0.16700
O47         O  0.04590323  0.08004210  0.93867779    -0.77900
C48         C  0.41814112  0.08803066  0.91509572     0.83100
O49         O  0.00583482  0.47613799  0.99359765    -0.79000
O50         O  0.42365078  0.45661383  0.90572394    -0.80500
O51         O  0.03631310  0.00059946  0.85157322    -0.80300
O52         O  0.08405341  0.04211475  0.90586902    -0.78900
Zn53       Zn  0.99743564  0.05243942  0.94511933     1.55700
O54         O  0.47028741  0.99761436  0.85085857    -0.80300
Cd55       Cd  0.05069123  0.99736532  0.89605382     1.59700
Cd56       Cd  0.00746873  0.45654605  0.94952165     1.59600
O57         O  0.08679075  0.44311616  0.90246505    -0.80300
O58         O  0.00226057  0.00293455  0.92189729    -1.90800
Cd59       Cd  0.45435115  0.00310382  0.89510366     1.59900
O60         O  0.06082436  0.41739932  0.94169060    -0.80300
O61         O  0.41586186  0.05689618  0.89925020    -0.78900
C62         C  0.99986065  0.01139243  0.00487458     0.83600
C63         C  0.07760044  0.07258406  0.92303337     0.83300
O64         O  0.44715324  0.09005077  0.93330374    -0.77900
C65         C  0.00330906  0.49899336  0.83752232     0.84100
O66         O  0.99523232  0.04251475  0.98890473    -0.78000
C67         C  0.08749994  0.41591346  0.92165184     0.84200
C68         C  0.42970331  0.42801283  0.92398786     0.84500
O69         O  0.45992005  0.42432312  0.94181075    -0.80400
C70         C  0.28617366  0.22261547  0.90698045     0.30600
C71         C  0.22236806  0.28436058  0.90748697     0.30600
C72         C  0.29173389  0.25855036  0.92687502    -0.05600
C73         C  0.27541145  0.24321579  0.87689570    -0.06400
C74         C  0.24519875  0.21176341  0.91539717    -0.06300
C75         C  0.25924015  0.29042822  0.92721116    -0.05600
C76         C  0.24392499  0.27593949  0.87751426    -0.06400
C77         C  0.21305617  0.24293732  0.91640420    -0.06300
C78         C  0.27692250  0.32494042  0.93070754    -0.31700
N79         N  0.31748385  0.31515985  0.93398705     0.14800
C80         C  0.32680679  0.27505193  0.93078324    -0.31700
H81         H  0.35711075  0.25962178  0.92666260     0.16800
C82         C  0.23838915  0.28975087  0.84907304    -0.30600
N83         N  0.26308748  0.26480986  0.83109904     0.13600
C84         C  0.28481824  0.23587508  0.84754505    -0.30600
C85         C  0.17832772  0.22572640  0.91948056    -0.30900
N86         N  0.18896084  0.18528185  0.91969761     0.14100
H87         H  0.14743922  0.24115537  0.91932932     0.16700
C88         C  0.22965009  0.17635751  0.91717699    -0.30900
H89         H  0.24629015  0.14634101  0.91506777     0.16700
H90         H  0.30369222  0.20999006  0.83816747     0.16700
H91         H  0.26189405  0.35520602  0.92686652     0.16800
H92         H  0.21617056  0.31426832  0.84161782     0.16700
O93         O  0.05114019  0.43845865  0.11153196    -0.77900
C94         C  0.42126222  0.45635237  0.12080174     0.83100
O95         O  0.49080260  0.05213172  0.04832933    -0.79000
O96         O  0.41371369  0.08672680  0.14153002    -0.80500
O97         O  0.03397444  0.03600128  0.18864359    -0.80300
O98         O  0.08431023  0.47521257  0.14155776    -0.78900
Zn99       Zn  0.50152236  0.47654802  0.09759144     1.55700
O100        O  0.46897281  0.02861460  0.19028573    -0.80300
Cd101      Cd  0.04654692  0.02904033  0.14417174     1.59700
Cd102      Cd  0.49032665  0.07382297  0.09180837     1.59600
O103        O  0.07708659  0.07457793  0.13152273    -0.80300
O104        O  0.49702599  0.02733903  0.11940766    -1.90800
Cd105      Cd  0.45005443  0.03205580  0.14660465     1.59900
O106        O  0.03837876  0.10700644  0.09673241    -0.80300
O107        O  0.41579772  0.48673128  0.13817004    -0.78900
C108        C  0.49831314  0.01664765  0.03728752     0.83600
C109        C  0.08093782  0.44193751  0.12877408     0.83300
O110        O  0.45207080  0.44947331  0.10413108    -0.77900
C111        C  0.50239371  0.03240541  0.20319637     0.84100
O112        O  0.50448169  0.48570332  0.05352337    -0.78000
C113        C  0.06985705  0.10318637  0.11337219     0.84200
C114        C  0.41192990  0.11451790  0.12268321     0.84500
O115        O  0.43697528  0.11293440  0.10143311    -0.80400
C116        C  0.21277300  0.30809989  0.13811290     0.30600
C117        C  0.27668513  0.24625854  0.13468860     0.30600
C118        C  0.25280227  0.31854494  0.12589462    -0.05600
C119        C  0.22577472  0.28662695  0.16709167    -0.06400
C120        C  0.20615012  0.27214207  0.11728707    -0.06300
C121        C  0.28520836  0.28755351  0.12550758    -0.05600
C122        C  0.25805440  0.25510745  0.16572892    -0.06400
C123        C  0.23862929  0.24030294  0.11665299    -0.06300
C124        C  0.31954074  0.30376594  0.11921078    -0.31700
N125        N  0.30861695  0.34346969  0.11429276     0.14800
C126        C  0.26787910  0.35247194  0.11720646    -0.31700
H127        H  0.25101869  0.38215105  0.11457928     0.16800
C128        C  0.26300065  0.24000753  0.19404491    -0.30600
N129        N  0.23538443  0.26179479  0.21203626     0.13600
C130        C  0.21264702  0.29035100  0.19577539    -0.30600
C131        C  0.22274402  0.20595114  0.10937004    -0.30900
N132        N  0.18281296  0.21561350  0.10304273     0.14100
H133        H  0.23808025  0.17555042  0.11218264     0.16700
C134        C  0.17247685  0.25565839  0.10751612    -0.30900
H135        H  0.14154400  0.27026218  0.10618973     0.16700
H136        H  0.18884903  0.31276514  0.20437625     0.16700
H137        H  0.35041383  0.28846549  0.12011242     0.16800
H138        H  0.28526314  0.21545019  0.20141001     0.16700
C139        C  0.45779533  0.04134729  0.40393596     0.30600
C140        C  0.02048338  0.47796906  0.40557687     0.30600
C141        C  0.44737206  0.00098921  0.41471732    -0.05600
C142        C  0.47969977  0.03001109  0.37475947    -0.06400
C143        C  0.99378328  0.04717076  0.42524286    -0.06300
C144        C  0.47891645  0.46900616  0.41473478    -0.05600
C145        C  0.01213439  0.49866018  0.37550331    -0.06400
C146        C  0.02597734  0.01463947  0.42524707    -0.06300
C147        C  0.46278473  0.43472565  0.42065417    -0.31700
N148        N  0.42241890  0.44507996  0.42463037     0.14800
C149        C  0.41315583  0.48554343  0.42293496    -0.31700
H150        H  0.38331548  0.00198584  0.42595044     0.16800
C151        C  0.02707174  0.49450601  0.34712177    -0.30600
N152        N  0.50314324  0.02051189  0.32938792     0.13600
C153        C  0.47477482  0.04295842  0.34618944    -0.30600
C154        C  0.06118091  0.03061156  0.43067641    -0.30900
N155        N  0.05225166  0.07049529  0.43519945     0.14100
H156        H  0.09166892  0.01496613  0.42772883     0.16700
C157        C  0.01165050  0.08081002  0.43287589    -0.30900
H158        H  0.99726497  0.11156796  0.43431550     0.16700
H159        H  0.45135130  0.06595133  0.33796853     0.16700
H160        H  0.47876778  0.40424714  0.42033274     0.16800
H161        H  0.05265164  0.47355042  0.33956227     0.16700
O162        O  0.19755341  0.17783371  0.44254617    -0.77900
C163        C  0.32577098  0.17512083  0.41428045     0.83100
O164        O  0.23501643  0.28607727  0.49396253    -0.79000
O165        O  0.31234827  0.30679222  0.40782871    -0.80500
O166        O  0.20214535  0.25346182  0.35239252    -0.80300
O167        O  0.15699539  0.21092230  0.40871569    -0.78900
Zn168      Zn  0.24668252  0.20668608  0.44648605     1.55700
O169        O  0.26662248  0.26317794  0.35285284    -0.80300
Cd170      Cd  0.18836388  0.25701590  0.39744582     1.59700
Cd171      Cd  0.23159464  0.30331389  0.45039633     1.59600
O172        O  0.15110711  0.31117163  0.40430376    -0.80300
O173        O  0.23756203  0.25547991  0.42322967    -1.90800
Cd174      Cd  0.28382864  0.25857543  0.39678380     1.59900
O175        O  0.17857372  0.34126973  0.44166527    -0.80300
O176        O  0.32501909  0.20735549  0.40002268    -0.78900
C177        C  0.24562408  0.25202997  0.50582269     0.83600
C178        C  0.16484504  0.18276059  0.42731543     0.83300
O179        O  0.29755574  0.17011753  0.43204160    -0.77900
C180        C  0.23414370  0.25906181  0.33891242     0.84100
O181        O  0.25277600  0.21971442  0.49042273    -0.78000
C182        C  0.15088820  0.34083669  0.42221605     0.84200
C183        C  0.30619115  0.33528608  0.42682784     0.84500
O184        O  0.27691024  0.33773385  0.44467172    -0.80400
C185        C  0.12597559  0.13317140  0.40511942    -0.05200
C186        C  0.13558547  0.15426416  0.43044016     0.00700
C187        C  0.11667365  0.14836142  0.45750718    -0.07800
C188        C  0.08933662  0.12029901  0.45835613    -0.05200
C189        C  0.08084628  0.09825124  0.43318703     0.00700
C190        C  0.09903859  0.10494796  0.40597755    -0.07700
C191        C  0.09001616  0.08259085  0.37788064     0.62600
H192        H  0.14051837  0.13847864  0.38464738     0.13300
H193        H  0.07440486  0.11509535  0.47867291     0.13300
C194        C  0.12432918  0.17250502  0.48500008     0.62900
F195        F  0.10635065  0.09783954  0.35338147    -0.22300
F196        F  0.04864641  0.08582534  0.37338564    -0.19600
F197        F  0.10645605  0.04257237  0.37984708    -0.19300
F198        F  0.11651746  0.21307925  0.47905223    -0.19400
F199        F  0.16421551  0.16265530  0.49407481    -0.19700
F200        F  0.09974334  0.16514680  0.50801410    -0.22400
C201        C  0.07586540  0.43719274  0.43586823    -0.05200
C202        C  0.05378088  0.44091947  0.40895222     0.00700
C203        C  0.06100957  0.40783082  0.38865094    -0.07800
C204        C  0.09438109  0.37789506  0.39339867    -0.05200
C205        C  0.11787114  0.37584635  0.41933761     0.00700
C206        C  0.10792935  0.40594961  0.44143082    -0.07700
C207        C  0.13019210  0.40556988  0.47098200     0.62600
H208        H  0.06724979  0.45868612  0.45336589     0.13300
H209        H  0.10090651  0.35441816  0.37676121     0.13300
C210        C  0.03407739  0.39918440  0.36290690     0.62900
F211        F  0.11310980  0.43609800  0.48978770    -0.22300
F212        F  0.17002541  0.41074785  0.46667513    -0.19600
F213        F  0.12893869  0.36958588  0.48492115    -0.19300
F214        F  0.05423171  0.40190876  0.33675898    -0.19400
F215        F  0.49764617  0.42410736  0.36212865    -0.19700
F216        F  0.02568497  0.36033571  0.36498894    -0.22400
C217        C  0.43073654  0.11582824  0.40170952    -0.05200
C218        C  0.42216209  0.07631070  0.40087465     0.00700
C219        C  0.38092627  0.07218361  0.39455366    -0.07800
C220        C  0.35044550  0.10411105  0.40203321    -0.05200
C221        C  0.35979334  0.14226878  0.40914671     0.00700
C222        C  0.40063789  0.14893497  0.40717204    -0.07700
C223        C  0.41289541  0.19035977  0.41105073     0.62600
H224        H  0.46090788  0.12096739  0.39662976     0.13300
H225        H  0.31889707  0.10037900  0.39919000     0.13300
C226        C  0.36764233  0.04084827  0.37365250     0.62900
F227        F  0.45455258  0.18845504  0.41337108    -0.22300
F228        F  0.39608796  0.20861073  0.43648092    -0.19600
F229        F  0.39977491  0.21369182  0.38703632    -0.19300
F230        F  0.33846249  0.02186146  0.38653636    -0.19400
F231        F  0.39923181  0.01257516  0.36456767    -0.19700
F232        F  0.35069980  0.05989372  0.34868362    -0.22400
C233        C  0.36790452  0.41863402  0.44952887    -0.05200
C234        C  0.39299747  0.41806562  0.42502475     0.00700
C235        C  0.38638101  0.39375599  0.40022600    -0.07800
C236        C  0.35794828  0.36744726  0.40219348    -0.05200
C237        C  0.33392728  0.36613805  0.42724142     0.00700
C238        C  0.33749035  0.39384833  0.45091590    -0.07700
C239        C  0.30942431  0.39823737  0.47724410     0.62600
H240        H  0.37235239  0.43913621  0.46749774     0.13300
H241        H  0.35433420  0.34756344  0.38367656     0.13300
C242        C  0.40897686  0.39495987  0.37159140     0.62900
F243        F  0.31833940  0.42754688  0.49696290    -0.22300
F244        F  0.31288367  0.36238226  0.49212089    -0.19600
F245        F  0.26984389  0.40936260  0.46776127    -0.19300
F246        F  0.41160256  0.43402457  0.36420925    -0.19400
F247        F  0.44702618  0.87342277  0.37464136    -0.19700
F248        F  0.38970779  0.37808201  0.34837610    -0.22400
C249        C  0.24674715  0.29221972  0.25998557    -0.05200
C250        C  0.23484709  0.26018105  0.24374066     0.00700
C251        C  0.22121449  0.22829803  0.25870305    -0.07800
C252        C  0.22074810  0.22922445  0.28983259    -0.05200
C253        C  0.23390350  0.26076224  0.30617354     0.00700
C254        C  0.24670417  0.29312969  0.29101426    -0.07700
C255        C  0.25925619  0.32907077  0.30739679     0.62600
H256        H  0.25649603  0.31645419  0.24791125     0.13300
H257        H  0.21073303  0.20493573  0.30169470     0.13300
C258        C  0.20641124  0.19411755  0.24171283     0.62900
F259        F  0.26476664  0.35948728  0.28840626    -0.22300
F260        F  0.29538446  0.31768714  0.32233736    -0.19600
F261        F  0.22958517  0.34443022  0.32726103    -0.19300
F262        F  0.23784848  0.17298015  0.22577664    -0.19400
F263        F  0.17554859  0.20931091  0.22256650    -0.19700
F264        F  0.19171240  0.16756719  0.26025811    -0.22400
C265        C  0.52788755  0.04812230  0.28482901    -0.05200
C266        C  0.50470103  0.02193197  0.29781107     0.00700
C267        C  0.48104921  0.49969859  0.27996634    -0.07800
C268        C  0.48160242  0.50407536  0.24931764    -0.05200
C269        C  0.50465713  0.03016207  0.23589152     0.00700
C270        C  0.52828876  0.05287917  0.25399210    -0.07700
C271        C  0.55234094  0.08322169  0.24120412     0.62600
H272        H  0.54519860  0.06521542  0.29926226     0.13300
H273        H  0.46392163  0.48673390  0.23535407     0.13300
C274        C  0.45522353  0.47131987  0.29310412     0.62900
F275        F  0.56846071  0.10551868  0.26302084    -0.22300
F276        F  0.52733220  0.10956638  0.22352479    -0.19600
F277        F  0.08424882  0.06359856  0.22475369    -0.19300
F278        F  0.42722209  0.49221517  0.31192545    -0.19400
F279        F  0.97962925  0.44182295  0.30839371    -0.19700
F280        F  0.43424508  0.45269944  0.27175998    -0.22400
C281        C  0.10319472  0.15091004  0.08416344    -0.05200
C282        C  0.09897774  0.13261355  0.11145659     0.00700
C283        C  0.12248520  0.14299562  0.13608888    -0.07800
C284        C  0.14964524  0.17046029  0.13214194    -0.05200
C285        C  0.15437485  0.18770457  0.10485757     0.00700
C286        C  0.13085569  0.17821207  0.08044170    -0.07700
C287        C  0.13624684  0.19593857  0.05055055     0.62600
H288        H  0.08534377  0.14291985  0.06550296     0.13300
H289        H  0.16792507  0.17888558  0.15042497     0.13300
C290        C  0.11900230  0.12606525  0.16666595     0.62900
F291        F  0.10998876  0.18365600  0.02963667    -0.22300
F292        F  0.17554615  0.18393792  0.04119407    -0.19600
F293        F  0.12884683  0.23736138  0.05239054    -0.19300
F294        F  0.13501239  0.08576517  0.16667889    -0.19400
F295        F  0.07881267  0.13100584  0.17497524    -0.19700
F296        F  0.13997484  0.14519096  0.18773546    -0.22400
C297        C  0.15140894  0.41471062  0.14350486    -0.05200
C298        C  0.11282957  0.40693349  0.13452627     0.00700
C299        C  0.10493847  0.36672918  0.13544349    -0.07800
C300        C  0.13770834  0.33596284  0.14043038    -0.05200
C301        C  0.17794270  0.34348499  0.14220860     0.00700
C302        C  0.18308343  0.38363502  0.15005396    -0.07700
C303        C  0.21688909  0.39563207  0.16962279     0.62600
H304        H  0.15645693  0.44548091  0.14702674     0.13300
H305        H  0.13185363  0.30599068  0.14417517     0.13300
C306        C  0.06240097  0.35606628  0.13233203     0.62900
F307        F  0.23567662  0.42413819  0.15589734    -0.22300
F308        F  0.24577351  0.36386853  0.17755686    -0.19600
F309        F  0.19994474  0.41274643  0.19537021    -0.19300
F310        F  0.04852549  0.36239816  0.10372115    -0.19400
F311        F  0.03656630  0.37940102  0.15154848    -0.19700
F312        F  0.06129005  0.31620013  0.13870296    -0.22400
C313        C  0.35580465  0.16170910  0.10097947    -0.05200
C314        C  0.37962136  0.14963348  0.12568376     0.00700
C315        C  0.37365374  0.17255040  0.15211492    -0.07800
C316        C  0.34086710  0.20411161  0.15371583    -0.05200
C317        C  0.31384522  0.21370948  0.12994129     0.00700
C318        C  0.32495997  0.19512231  0.10189270    -0.07700
C319        C  0.30782816  0.20921838  0.07186512     0.62600
H320        H  0.36234312  0.14551694  0.08031359     0.13300
H321        H  0.33724011  0.22250236  0.17340948     0.13300
C322        C  0.40284754  0.16490976  0.17807809     0.62900
F323        F  0.33934278  0.20883703  0.05224728    -0.22300
F324        F  0.28714583  0.24778943  0.07201279    -0.19600
F325        F  0.28254777  0.18320057  0.06122507    -0.19300
F326        F  0.44223414  0.16392814  0.16858853    -0.19400
F327        F  0.39904847  0.12869897  0.19078892    -0.19700
F328        F  0.39551580  0.19466395  0.19957809    -0.22400
C329        C  0.37649877  0.41697505  0.09227725    -0.05200
C330        C  0.39123026  0.42809942  0.11991249     0.00700
C331        C  0.37849844  0.41071127  0.14581293    -0.07800
C332        C  0.35076811  0.38323161  0.14305691    -0.05200
C333        C  0.33602757  0.37245896  0.11549961     0.00700
C334        C  0.34883816  0.38933815  0.08974100    -0.07700
C335        C  0.33351207  0.37725802  0.05992170     0.62600
H336        H  0.38678901  0.43017821  0.07268521     0.13300
H337        H  0.34042038  0.36947416  0.16238087     0.13300
C338        C  0.39551234  0.41953215  0.17604076     0.62900
F339        F  0.35029215  0.39599797  0.03723042    -0.22300
F340        F  0.29185602  0.38758316  0.05841059    -0.19600
F341        F  0.34340731  0.33617677  0.05601219    -0.19300
F342        F  0.38293410  0.45917729  0.18398932    -0.19400
F343        F  0.43741577  0.41217923  0.17549672    -0.19700
F344        F  0.38272070  0.39572937  0.19753666    -0.22400
C345        C  0.15024392  0.14346398  0.94774314    -0.05200
C346        C  0.16161210  0.15644907  0.92034254     0.00700
C347        C  0.14713885  0.14022230  0.89405620    -0.07800
C348        C  0.11968751  0.11283931  0.89610795    -0.05200
C349        C  0.10707964  0.10086936  0.92344381     0.00700
C350        C  0.12342302  0.11519328  0.94980645    -0.07700
C351        C  0.11408222  0.09937509  0.97968581     0.62600
H352        H  0.16278483  0.15565113  0.96744068     0.13300
H353        H  0.10725475  0.10091368  0.87625083     0.13300
C354        C  0.16003795  0.15223003  0.86400718     0.62900
F355        F  0.13838262  0.11218568  0.00171765    -0.22300
F356        F  0.12089894  0.05783936  0.97904942    -0.19600
F357        F  0.07409175  0.11256998  0.98677190    -0.19300
F358        F  0.20174944  0.14461258  0.86176139    -0.19400
F359        F  0.14688367  0.19252778  0.86011167    -0.19700
F360        F  0.14371028  0.13136869  0.84142448    -0.22400
C361        C  0.35955063  0.13115752  0.93638246    -0.05200
C362        C  0.38582641  0.12266326  0.91272899     0.00700
C363        C  0.38254998  0.14859752  0.88852059    -0.07800
C364        C  0.35098632  0.18127106  0.88810645    -0.05200
C365        C  0.32172194  0.18819944  0.91048338     0.00700
C366        C  0.32868111  0.16445182  0.93660743    -0.07700
C367        C  0.30693723  0.17193716  0.96608048     0.62600
H368        H  0.36400410  0.11193873  0.95546459     0.13300
H369        H  0.35105537  0.20298555  0.87111127     0.13300
C370        C  0.41348349  0.14276495  0.86396413     0.62900
F371        F  0.33559737  0.17305147  0.98828128    -0.22300
F372        F  0.28578872  0.14054708  0.97139806    -0.19600
F373        F  0.28043345  0.20722438  0.96836183    -0.19300
F374        F  0.41417571  0.10531892  0.85089094    -0.19400
F375        F  0.45148032  0.14578411  0.87549809    -0.19700
F376        F  0.40473422  0.17124511  0.84225548    -0.22400
C377        C  0.12139030  0.35713988  0.89423492    -0.05200
C378        C  0.11991685  0.38115372  0.91967724     0.00700
C379        C  0.14913070  0.37176122  0.94208437    -0.07800
C380        C  0.18116643  0.34034200  0.93697488    -0.05200
C381        C  0.18490972  0.31731250  0.91040511     0.00700
C382        C  0.15134454  0.32350192  0.89010201    -0.07700
C383        C  0.14216205  0.29556884  0.86508647     0.62600
H384        H  0.09726335  0.36355431  0.87796858     0.13300
H385        H  0.20290020  0.33293355  0.95457164     0.13300
C386        C  0.14645088  0.39489218  0.97119927     0.62900
F387        F  0.10448188  0.28441245  0.86966311    -0.22300
F388        F  0.16935625  0.26093695  0.86272671    -0.19600
F389        F  0.14087985  0.31552617  0.83862913    -0.19300
F390        F  0.11210038  0.38834483  0.98596979    -0.19400
F391        F  0.14443724  0.43552315  0.96617616    -0.19700
F392        F  0.17966325  0.38306676  0.98927811    -0.22400
C393        C  0.40024094  0.37600241  0.95108429    -0.05200
C394        C  0.40065577  0.39843609  0.92515706     0.00700
C395        C  0.37399030  0.39144996  0.90141743    -0.07800
C396        C  0.34664339  0.36410030  0.90542704    -0.05200
C397        C  0.34612542  0.34260987  0.93145736     0.00700
C398        C  0.37376347  0.34770895  0.95440307    -0.07700
C399        C  0.37455058  0.32360439  0.98236820     0.62600
H400        H  0.42082665  0.38078782  0.96896131     0.13300
H401        H  0.32543644  0.35870701  0.88809825     0.13300
C402        C  0.37462377  0.41138718  0.87162445     0.63700
F403        F  0.40130235  0.33530265  0.00316694    -0.22300
F404        F  0.38651715  0.28335151  0.97601391    -0.19600
F405        F  0.33626788  0.32872535  0.99446398    -0.19300
F406        F  0.41371981  0.40590774  0.86088410    -0.19400
F407        F  0.36025839  0.45194365  0.87432893    -0.19700
F408        F  0.35049032  0.39527238  0.85096025    -0.22400
C409        C  0.47907008  0.97241582  0.79042715    -0.05200
C410        C  0.00334626  0.49765698  0.80471855     0.00700
C411        C  0.02606799  0.52103834  0.78739085    -0.07800
C412        C  0.02282152  0.51853333  0.75644405    -0.05200
C413        C  0.99862604  0.49316753  0.74253708     0.00700
C414        C  0.47686402  0.96933929  0.75951391    -0.07700
C415        C  0.45181873  0.94056660  0.74478001     0.62600
H416        H  0.46222035  0.95444599  0.80377572     0.13300
H417        H  0.03936572  0.53616207  0.74259994     0.13300
C418        C  0.05290403  0.54917409  0.80114116     0.62900
F419        F  0.43159780  0.42081532  0.76512463    -0.22300
F420        F  0.47716592  0.41169662  0.72883069    -0.19600
F421        F  0.42356211  0.96127597  0.72591797    -0.19300
F422        F  0.08558674  0.52717485  0.81535667    -0.19400
F423        F  0.03143681  0.07480651  0.82100690    -0.19700
F424        F  0.06840276  0.07199285  0.78004139    -0.22400
C425        C  0.27902294  0.28469644  0.75134912    -0.05200
C426        C  0.25637184  0.25753792  0.73744428     0.00700
C427        C  0.23647323  0.23207058  0.75505897    -0.07800
C428        C  0.23865884  0.23606782  0.78593431    -0.05200
C429        C  0.26063097  0.26365340  0.79953328     0.00700
C430        C  0.28175077  0.28785408  0.78225488    -0.07700
C431        C  0.30787449  0.31586265  0.79675196     0.62600
H432        H  0.29468417  0.30347272  0.73778265     0.13300
H433        H  0.22352872  0.21740217  0.79996068     0.13300
C434        C  0.21458688  0.19958777  0.74164012     0.62900
F435        F  0.32632690  0.33683573  0.77619164    -0.22300
F436        F  0.33784264  0.29383313  0.81360442    -0.19600
F437        F  0.28437935  0.34333913  0.81473418    -0.19300
F438        F  0.23966382  0.17636595  0.72189192    -0.19400
F439        F  0.17969922  0.21686398  0.72727754    -0.19700
F440        F  0.20355355  0.17432381  0.76285345    -0.22400
C441        C  0.36326660  0.09693617  0.63596336    -0.05200
C442        C  0.37362558  0.13501728  0.63099193     0.00700
C443        C  0.41466303  0.14049122  0.63378575    -0.07800
C444        C  0.44384817  0.10676619  0.63900842    -0.05200
C445        C  0.43471645  0.06734643  0.63807815     0.00700
C446        C  0.39284472  0.06345218  0.64180088    -0.07700
C447        C  0.37657567  0.02828223  0.65572160     0.62600
H448        H  0.33142820  0.09386066  0.63716158     0.13300
H449        H  0.47377756  0.11156603  0.64564211     0.13300
C450        C  0.42815318  0.18131481  0.63047195     0.62900
F451        F  0.35750421  0.04150197  0.68173798    -0.22300
F452        F  0.40589143  0.99642954  0.66249080    -0.19600
F453        F  0.34799140  0.51478600  0.63734666    -0.19300
F454        F  0.41519155  0.20597341  0.65419381    -0.19400
F455        F  0.41223625  0.19880698  0.60466876    -0.19700
F456        F  0.46993532  0.17828728  0.62918835    -0.22400
C457        C  0.13548308  0.39913490  0.64904863    -0.05200
C458        C  0.13415592  0.37021870  0.62680633     0.00700
C459        C  0.10253054  0.37495615  0.60586859    -0.07800
C460        C  0.07180944  0.40800844  0.60875643    -0.05200
C461        C  0.07054351  0.43597928  0.63249348     0.00700
C462        C  0.10555583  0.43322420  0.65152903    -0.07700
C463        C  0.11591135  0.46488185  0.67363713     0.62600
H464        H  0.16130097  0.39581432  0.66403384     0.13300
H465        H  0.04928915  0.41253307  0.59148872     0.13300
C466        C  0.10119216  0.34478427  0.58073878     0.62900
F467        F  0.15328474  0.47503024  0.66660585    -0.22300
F468        F  0.11867042  0.44897088  0.70161451    -0.19600
F469        F  0.08888648  0.00011348  0.67419578    -0.19300
F470        F  0.10016257  0.30710698  0.59208321    -0.19400
F471        F  0.13524376  0.34351929  0.56350024    -0.19700
F472        F  0.06739557  0.35446594  0.56280829    -0.22400
C473        C  0.36263713  0.37071550  0.58582643    -0.05200
C474        C  0.35379384  0.35828188  0.61418670     0.00700
C475        C  0.37188194  0.37477584  0.63919228    -0.07800
C476        C  0.39843414  0.40276204  0.63472624    -0.05200
C477        C  0.40777309  0.41433925  0.60644640     0.00700
C478        C  0.38993836  0.39818539  0.58157978    -0.07700
C479        C  0.40054080  0.40969635  0.55086729     0.62600
H480        H  0.34861039  0.35809204  0.56692709     0.13300
H481        H  0.41314513  0.41535057  0.65330296     0.13300
C482        C  0.36322728  0.36342115  0.67051218     0.62900
F483        F  0.38286504  0.38811899  0.52942960    -0.22300
F484        F  0.44208214  0.40214079  0.54723165    -0.19600
F485        F  0.38722467  0.45012820  0.54683661    -0.19300
F486        F  0.38024233  0.32407867  0.67547295    -0.19400
F487        F  0.32184021  0.36778310  0.67488243    -0.19700
F488        F  0.37936368  0.38740039  0.69121061    -0.22400
C489        C  0.14625827  0.12825072  0.58980600    -0.05200
C490        C  0.15173080  0.14723790  0.61719653     0.00700
C491        C  0.13024032  0.13677856  0.64210872    -0.07800
C492        C  0.10308318  0.10894059  0.63826934    -0.05200
C493        C  0.09730149  0.09080591  0.61087982     0.00700
C494        C  0.11945482  0.09990055  0.58634029    -0.07700
C495        C  0.11430881  0.07965633  0.55679649     0.62600
H496        H  0.16293622  0.13602366  0.57096544     0.13300
H497        H  0.08583662  0.10083768  0.65670632     0.13300
C498        C  0.13638600  0.15374886  0.67281609     0.62900
F499        F  0.13847480  0.09252576  0.53544981    -0.22300
F500        F  0.07432741  0.08809802  0.54758652    -0.19600
F501        F  0.12485839  0.03858492  0.55938810    -0.19300
F502        F  0.11989426  0.19390279  0.67410570    -0.19400
F503        F  0.17730314  0.14947890  0.67965173    -0.19700
F504        F  0.11789191  0.13408558  0.69416010    -0.22400
O505        O  0.19561784  0.83731360  0.60675971    -0.77900
C506        C  0.32541294  0.82847804  0.61672300     0.83100
O507        O  0.25863299  0.71679778  0.55094214    -0.79000
O508        O  0.34025835  0.70052346  0.64206730    -0.80500
O509        O  0.22292999  0.75134949  0.69122515    -0.80300
O510        O  0.16660330  0.80680192  0.64225649    -0.78900
Zn511      Zn  0.24665954  0.80013413  0.59576318     1.55700
O512        O  0.28763043  0.76009030  0.69076589    -0.80300
Cd513      Cd  0.20581625  0.75384031  0.64709691     1.59700
Cd514      Cd  0.25971372  0.70291903  0.59569629     1.59600
O515        O  0.17465003  0.70656578  0.63678019    -0.80300
O516        O  0.25342158  0.75322162  0.62073231    -1.90800
Cd517      Cd  0.30213653  0.75410739  0.64644036     1.59900
O518        O  0.21159617  0.67154030  0.60204809    -0.80300
O519        O  0.33304597  0.80034139  0.63525768    -0.78900
C520        C  0.24933813  0.75053178  0.53826163     0.83600
C521        C  0.16734006  0.83628254  0.62521547     0.83300
O522        O  0.29397202  0.83153281  0.60016425    -0.77900
C523        C  0.25561905  0.75604006  0.70472579     0.84100
O524        O  0.24287967  0.78348578  0.55289537    -0.78000
C525        C  0.18090494  0.67675055  0.61891540     0.84200
C526        C  0.34049874  0.66884350  0.62637901     0.84500
O527        O  0.31251113  0.66498677  0.60755830    -0.80400
C528        C  0.03355455  0.96937751  0.63415387     0.30600
C529        C  0.47040059  0.53230763  0.63524030     0.30600
C530        C  0.49551857  0.96328333  0.61577361    -0.05600
C531        C  0.01447288  0.98019537  0.66432842    -0.06400
C532        C  0.04301246  0.50944556  0.62285662    -0.06300
C533        C  0.46396077  0.99602463  0.61497398    -0.05600
C534        C  0.48360471  0.51290465  0.66502941    -0.06400
C535        C  0.01144445  0.54152983  0.62297101    -0.06300
C536        C  0.42966761  0.98101693  0.60522601    -0.31700
N537        N  0.43776867  0.94046349  0.60364795     0.14800
C538        C  0.47716304  0.92952855  0.61102146    -0.31700
H539        H  0.49032119  0.89901737  0.61629895     0.16800
C540        C  0.47358282  0.52047646  0.69419564    -0.30600
N541        N  0.99638050  0.99241507  0.71085233     0.13600
C542        C  0.02113002  0.96743404  0.69292803    -0.30600
C543        C  0.02824394  0.57411631  0.61297067    -0.30900
N544        N  0.06860023  0.56314390  0.60902441     0.14100
H545        H  0.01342756  0.60448377  0.60982517     0.16700
C546        C  0.07781347  0.52348961  0.61448589    -0.30900
H547        H  0.10824837  0.50700325  0.61509365     0.16700
H548        H  0.04346469  0.94297674  0.70038907     0.16700
H549        H  0.39991333  0.99769010  0.60282582     0.16800
H550        H  0.45196219  0.54502439  0.70271540     0.16700
O551        O  0.04613491  0.57997318  0.93870206    -0.77900
C552        C  0.41830419  0.58815348  0.91510642     0.83100
O553        O  0.00584304  0.97607932  0.99351511    -0.79000
O554        O  0.42367218  0.95656418  0.90567362    -0.80500
O555        O  0.03619636  0.50055979  0.85163995    -0.80300
O556        O  0.08414223  0.54202185  0.90583075    -0.78900
Zn557      Zn  0.99757460  0.55248211  0.94517327     1.55700
O558        O  0.47021265  0.49764712  0.85089013    -0.80300
Cd559      Cd  0.05066292  0.49733007  0.89609581     1.59700
Cd560      Cd  0.00747878  0.95652619  0.94943210     1.59600
O561        O  0.08687256  0.94317253  0.90243243    -0.80300
O562        O  0.00227152  0.50295524  0.92197926    -1.90800
Cd563      Cd  0.45434588  0.50315549  0.89515200     1.59900
O564        O  0.06082306  0.91738727  0.94159353    -0.80300
O565        O  0.41593329  0.55699928  0.89930327    -0.78900
C566        C  0.99991248  0.51145704  0.00495101     0.83600
C567        C  0.07779020  0.57247777  0.92301330     0.83300
O568        O  0.44735756  0.59015319  0.93328385    -0.77900
C569        C  0.00344623  0.99899502  0.83743588     0.84100
O570        O  0.99534695  0.54257601  0.98897419    -0.78000
C571        C  0.08754275  0.91593754  0.92159101     0.84200
C572        C  0.42968529  0.92801647  0.92398096     0.84500
O573        O  0.45988591  0.92435121  0.94181550    -0.80400
C574        C  0.28629743  0.72269690  0.90702710     0.30600
C575        C  0.22242463  0.78437255  0.90753393     0.30600
C576        C  0.29177506  0.75860446  0.92696710    -0.05600
C577        C  0.27556414  0.74334482  0.87695392    -0.06400
C578        C  0.24533216  0.71177411  0.91539267    -0.06300
C579        C  0.25925012  0.79045004  0.92730352    -0.05600
C580        C  0.24403660  0.77602900  0.87757300    -0.06400
C581        C  0.21315076  0.74290889  0.91639753    -0.06300
C582        C  0.27689188  0.82497919  0.93084180    -0.31700
N583        N  0.31745296  0.81523192  0.93414320     0.14800
C584        C  0.32681821  0.77513300  0.93092425    -0.31700
H585        H  0.35713480  0.75973816  0.92679909     0.16800
C586        C  0.23851450  0.78986824  0.84913560    -0.30600
N587        N  0.26327920  0.76499044  0.83116115     0.13600
C588        C  0.28502477  0.73606154  0.84760529    -0.30600
C589        C  0.17845587  0.72563810  0.91947197    -0.30900
N590        N  0.18914959  0.68519704  0.91969127     0.14100
H591        H  0.14755134  0.74102517  0.91932708     0.16700
C592        C  0.22984386  0.67633562  0.91717445    -0.30900
H593        H  0.24652896  0.64633789  0.91507138     0.16700
H594        H  0.30393213  0.71020204  0.83822301     0.16700
H595        H  0.26184587  0.85523714  0.92699538     0.16800
H596        H  0.21625112  0.81434842  0.84167958     0.16700
O597        O  0.05103326  0.93832489  0.11142230    -0.77900
C598        C  0.42113324  0.95640046  0.12063023     0.83100
O599        O  0.49087627  0.55217691  0.04838764    -0.79000
O600        O  0.41377750  0.58672366  0.14158927    -0.80500
O601        O  0.03394063  0.53602536  0.18875812    -0.80300
O602        O  0.08423129  0.97505508  0.14144201    -0.78900
Zn603      Zn  0.50144406  0.97651642  0.09751077     1.55700
O604        O  0.46903770  0.52867672  0.19039793    -0.80300
Cd605      Cd  0.04653961  0.52913437  0.14429443     1.59700
Cd606      Cd  0.49040669  0.57382315  0.09188223     1.59600
O607        O  0.07704345  0.57470300  0.13168487    -0.80300
O608        O  0.49710286  0.52735568  0.11950047    -1.90800
Cd609      Cd  0.45013292  0.53206455  0.14670980     1.59900
O610        O  0.03839421  0.60704473  0.09682501    -0.80300
O611        O  0.41568864  0.98677045  0.13800742    -0.78900
C612        C  0.49833669  0.51669436  0.03733937     0.83600
C613        C  0.08083707  0.94177999  0.12866191     0.83300
O614        O  0.45195155  0.94949224  0.10397376    -0.77900
C615        C  0.50247084  0.53241481  0.20330984     0.84100
O616        O  0.50449043  0.98565858  0.05346840    -0.78000
C617        C  0.06984228  0.60326244  0.11349377     0.84200
C618        C  0.41201004  0.61451297  0.12274082     0.84500
O619        O  0.43707077  0.61293159  0.10150219    -0.80400
C620        C  0.21275930  0.80800092  0.13806923     0.30600
C621        C  0.27673590  0.74621763  0.13467768     0.30600
C622        C  0.25277075  0.81848599  0.12585309    -0.05600
C623        C  0.22578109  0.78656541  0.16706183    -0.06400
C624        C  0.20619997  0.77201417  0.11725408    -0.06300
C625        C  0.28520734  0.78752149  0.12547276    -0.05600
C626        C  0.25809567  0.75507763  0.16571491    -0.06400
C627        C  0.23869939  0.74020191  0.11664916    -0.06300
C628        C  0.31951513  0.80377100  0.11917428    -0.31700
N629        N  0.30854854  0.84346920  0.11425636     0.14800
C630        C  0.26780929  0.85243683  0.11717482    -0.31700
H631        H  0.25092390  0.88210887  0.11456483     0.16800
C632        C  0.26307083  0.74002053  0.19404273    -0.30600
N633        N  0.23544737  0.76180908  0.21202744     0.13600
C634        C  0.21266815  0.79031780  0.19575069    -0.30600
C635        C  0.22286040  0.70583119  0.10935152    -0.30900
N636        N  0.18294203  0.71547004  0.10297528     0.14100
H637        H  0.23820675  0.67543949  0.11219026     0.16700
C638        C  0.17257421  0.75551512  0.10741536    -0.30900
H639        H  0.14164054  0.77010185  0.10601857     0.16700
H640        H  0.18885370  0.81272164  0.20434324     0.16700
H641        H  0.35039984  0.78850074  0.12007375     0.16800
H642        H  0.28534908  0.71548489  0.20142103     0.16700
C643        C  0.45780942  0.54133760  0.40408023     0.30600
C644        C  0.02045659  0.97797638  0.40546429     0.30600
C645        C  0.44739692  0.50095246  0.41482519    -0.05600
C646        C  0.47972791  0.53005706  0.37490216    -0.06400
C647        C  0.99383820  0.54714783  0.42539328    -0.06300
C648        C  0.47887644  0.96902407  0.41464315    -0.05600
C649        C  0.01210732  0.99863472  0.37538276    -0.06400
C650        C  0.02602734  0.51461085  0.42537871    -0.06300
C651        C  0.46271339  0.93476768  0.42058120    -0.31700
N652        N  0.42235155  0.94516059  0.42455898     0.14800
C653        C  0.41311639  0.98562180  0.42283835    -0.31700
H654        H  0.38334684  0.50188195  0.42605687     0.16800
C655        C  0.02705991  0.99444732  0.34700939    -0.30600
N656        N  0.50318894  0.52064381  0.32952656     0.13600
C657        C  0.47479853  0.54304108  0.34633975    -0.30600
C658        C  0.06124120  0.53058200  0.43078118    -0.30900
N659        N  0.05232253  0.57047024  0.43529594     0.14100
H660        H  0.09172286  0.51493414  0.42780572     0.16700
C661        C  0.01171964  0.58078610  0.43299949    -0.30900
H662        H  0.99733521  0.61154757  0.43442369     0.16700
H663        H  0.45135262  0.56602076  0.33813066     0.16700
H664        H  0.47866882  0.90427785  0.42026602     0.16800
H665        H  0.05265236  0.97349290  0.33946820     0.16700
O666        O  0.19759134  0.67785497  0.44251657    -0.77900
C667        C  0.32584886  0.67519011  0.41435258     0.83100
O668        O  0.23499995  0.78608968  0.49399320    -0.79000
O669        O  0.31231063  0.80687892  0.40790690    -0.80500
O670        O  0.20224816  0.75350426  0.35238533    -0.80300
O671        O  0.15702947  0.71093440  0.40868531    -0.78900
Zn672      Zn  0.24670273  0.70672276  0.44649701     1.55700
O673        O  0.26672343  0.76322508  0.35287595    -0.80300
Cd674      Cd  0.18841096  0.75704446  0.39743383     1.59700
Cd675      Cd  0.23156509  0.80335394  0.45043220     1.59600
O676        O  0.15115232  0.81121115  0.40427429    -0.80300
O677        O  0.23758228  0.75552286  0.42324882    -1.90800
Cd678      Cd  0.28387531  0.75862611  0.39682946     1.59900
O679        O  0.17851546  0.84127509  0.44169946    -0.80300
O680        O  0.32511363  0.70743137  0.40010461    -0.78900
C681        C  0.24561095  0.75203826  0.50584703     0.83600
C682        C  0.16488376  0.68277000  0.42728469     0.83300
O683        O  0.29760023  0.67017870  0.43208163    -0.77900
C684        C  0.23425615  0.75910844  0.33891775     0.84100
O685        O  0.25276512  0.71972884  0.49044083    -0.78000
C686        C  0.15088093  0.84086121  0.42220810     0.84200
C687        C  0.30612495  0.83539325  0.42688813     0.84500
O688        O  0.27683921  0.83784315  0.44472908    -0.80400
C689        C  0.12591718  0.63322055  0.40511330    -0.05200
C690        C  0.13562329  0.65427033  0.43043113     0.00700
C691        C  0.11681837  0.64830745  0.45753132    -0.07800
C692        C  0.08950251  0.62022684  0.45841543    -0.05200
C693        C  0.08091260  0.59822819  0.43324720     0.00700
C694        C  0.09898875  0.60498687  0.40600550    -0.07700
C695        C  0.08982637  0.58269906  0.37790960     0.62600
H696        H  0.14037030  0.63857548  0.38461487     0.13300
H697        H  0.07465284  0.61498073  0.47875793     0.13300
C698        C  0.12454291  0.67242579  0.48502307     0.62900
F699        F  0.10617389  0.59790164  0.35339751    -0.22300
F700        F  0.04843652  0.58608675  0.37346601    -0.19600
F701        F  0.10612985  0.54264043  0.37983984    -0.19300
F702        F  0.11664417  0.71300650  0.47910932    -0.19400
F703        F  0.16446743  0.66262239  0.49401932    -0.19700
F704        F  0.10006498  0.66499567  0.50808188    -0.22400
C705        C  0.07586049  0.93725645  0.43577620    -0.05200
C706        C  0.05376462  0.94093454  0.40886367     0.00700
C707        C  0.06099779  0.90781225  0.38859125    -0.07800
C708        C  0.09436155  0.87787526  0.39337008    -0.05200
C709        C  0.11786331  0.87587432  0.41930364     0.00700
C710        C  0.10794521  0.90604019  0.44135723    -0.07700
C711        C  0.13025981  0.90576726  0.47088361     0.62600
H712        H  0.06723495  0.95876650  0.45326064     0.13300
H713        H  0.10087883  0.85436547  0.37675657     0.13300
C714        C  0.03409214  0.89913784  0.36283768     0.62900
F715        F  0.11325579  0.93640631  0.48962772    -0.22300
F716        F  0.17010298  0.91086077  0.46651258    -0.19600
F717        F  0.12897062  0.86986371  0.48492463    -0.19300
F718        F  0.05428418  0.90183123  0.33670173    -0.19400
F719        F  0.49755625  0.92401885  0.36207658    -0.19700
F720        F  0.02570053  0.86029088  0.36493419    -0.22400
C721        C  0.43079196  0.61581181  0.40177196    -0.05200
C722        C  0.42218670  0.57630430  0.40102625     0.00700
C723        C  0.38094079  0.57218714  0.39475210    -0.07800
C724        C  0.35048993  0.60414119  0.40222520    -0.05200
C725        C  0.35986624  0.64232069  0.40923436     0.00700
C726        C  0.40071518  0.64895795  0.40718027    -0.07700
C727        C  0.41300372  0.69038852  0.41091120     0.62600
H728        H  0.46097697  0.62090082  0.39667604     0.13300
H729        H  0.31893361  0.60041303  0.39942791     0.13300
C730        C  0.36762357  0.54088004  0.37384220     0.62900
F731        F  0.45467079  0.68847944  0.41312725    -0.22300
F732        F  0.39630623  0.70875761  0.43633534    -0.19600
F733        F  0.39979467  0.71361313  0.38686154    -0.19300
F734        F  0.33842017  0.52191720  0.38671859    -0.19400
F735        F  0.39919081  0.51258691  0.36474847    -0.19700
F736        F  0.35069915  0.55995405  0.34887869    -0.22400
C737        C  0.36783569  0.91877945  0.44949972    -0.05200
C738        C  0.39290551  0.91817809  0.42497977     0.00700
C739        C  0.38625418  0.89385630  0.40019709    -0.07800
C740        C  0.35781948  0.86755982  0.40219915    -0.05200
C741        C  0.33383514  0.86626595  0.42726826     0.00700
C742        C  0.33742357  0.89399619  0.45092458    -0.07700
C743        C  0.30939873  0.89839987  0.47727536     0.62600
H744        H  0.37230945  0.93929491  0.46745427     0.13300
H745        H  0.35418412  0.84766415  0.38369328     0.13300
C746        C  0.40883044  0.89500607  0.37154852     0.62900
F747        F  0.31834217  0.92772480  0.49697206    -0.22300
F748        F  0.31288683  0.86255525  0.49216667    -0.19600
F749        F  0.26980321  0.90951098  0.46782223    -0.19300
F750        F  0.41156530  0.93404502  0.36416467    -0.19400
F751        F  0.44721535  0.37347936  0.37471006    -0.19700
F752        F  0.38947177  0.87819929  0.34834530    -0.22400
C753        C  0.24691666  0.79221613  0.25997062    -0.05200
C754        C  0.23492295  0.76021609  0.24373390     0.00700
C755        C  0.22121997  0.72838162  0.25870570    -0.07800
C756        C  0.22079476  0.72930038  0.28983622    -0.05200
C757        C  0.23403432  0.76079955  0.30617302     0.00700
C758        C  0.24688956  0.79313329  0.29100214    -0.07700
C759        C  0.25948907  0.82906085  0.30737309     0.62600
H760        H  0.25671019  0.81642017  0.24788793     0.13300
H761        H  0.21072560  0.70504310  0.30170178     0.13300
C762        C  0.20627992  0.69427359  0.24171859     0.62900
F763        F  0.26507169  0.85944104  0.28837055    -0.22300
F764        F  0.29559101  0.81763993  0.32233718    -0.19600
F765        F  0.22981275  0.84448455  0.32721448    -0.19300
F766        F  0.23762603  0.67309641  0.22571616    -0.19400
F767        F  0.17538381  0.70956921  0.22263185    -0.19700
F768        F  0.19157029  0.66773842  0.26027047    -0.22400
C769        C  0.52805803  0.54809617  0.28493835    -0.05200
C770        C  0.50472066  0.52205837  0.29794426     0.00700
C771        C  0.48116220  0.99945707  0.27981935    -0.07800
C772        C  0.48167820  0.00389234  0.24917568    -0.05200
C773        C  0.50472571  0.53019610  0.23601046     0.00700
C774        C  0.52847405  0.55281447  0.25409556    -0.07700
C775        C  0.55266663  0.58302147  0.24128097     0.62600
H776        H  0.54547371  0.56510596  0.29935533     0.13300
H777        H  0.46409458  0.98647181  0.23519740     0.13300
C778        C  0.45552551  0.97089093  0.29293833     0.62900
F779        F  0.56885669  0.60529487  0.26307738    -0.22300
F780        F  0.52775874  0.60940473  0.22356540    -0.19600
F781        F  0.08432862  0.56345285  0.22485408    -0.19300
F782        F  0.42749158  0.99160060  0.31182641    -0.19400
F783        F  0.98009498  0.94145960  0.30809814    -0.19700
F784        F  0.43460256  0.95222723  0.27158440    -0.22400
C785        C  0.10334654  0.65073196  0.08418517    -0.05200
C786        C  0.09898769  0.63264733  0.11153826     0.00700
C787        C  0.12242448  0.64314672  0.13617214    -0.07800
C788        C  0.14963600  0.67054476  0.13217498    -0.05200
C789        C  0.15450446  0.68757602  0.10483363     0.00700
C790        C  0.13108309  0.67793918  0.08040960    -0.07700
C791        C  0.13666620  0.69540763  0.05045977     0.62600
H792        H  0.08555991  0.64263474  0.06552205     0.13300
H793        H  0.16785213  0.67907831  0.15045933     0.13300
C794        C  0.11882768  0.62639682  0.16679412     0.62900
F795        F  0.11049003  0.68300491  0.02953731    -0.22300
F796        F  0.17600598  0.68326382  0.04123927    -0.19600
F797        F  0.12933304  0.73684319  0.05211945    -0.19300
F798        F  0.13481166  0.58609327  0.16694229    -0.19400
F799        F  0.07861017  0.63140842  0.17503800    -0.19700
F800        F  0.13974970  0.64562401  0.18783592    -0.22400
C801        C  0.15126750  0.91455732  0.14347601    -0.05200
C802        C  0.11272940  0.90676441  0.13440612     0.00700
C803        C  0.10489087  0.86653192  0.13520489    -0.07800
C804        C  0.13766740  0.83579441  0.14025554    -0.05200
C805        C  0.17788376  0.84335080  0.14213743     0.00700
C806        C  0.18296030  0.88350203  0.15002531    -0.07700
C807        C  0.21673407  0.89552920  0.16960861     0.62600
H808        H  0.15627777  0.94532930  0.14705165     0.13300
H809        H  0.13182441  0.80581468  0.14397952     0.13300
C810        C  0.06240872  0.85578800  0.13187203     0.62900
F811        F  0.23546643  0.92409238  0.15590424    -0.22300
F812        F  0.24566996  0.86380157  0.17752309    -0.19600
F813        F  0.19975862  0.91258403  0.19536438    -0.19300
F814        F  0.04871847  0.86227576  0.10323262    -0.19400
F815        F  0.03640029  0.87894533  0.15107225    -0.19700
F816        F  0.06134041  0.81585888  0.13806644    -0.22400
C817        C  0.35590750  0.66168868  0.10100398    -0.05200
C818        C  0.37970147  0.64962700  0.12572155     0.00700
C819        C  0.37371594  0.67255856  0.15214384    -0.07800
C820        C  0.34093268  0.70412346  0.15372274    -0.05200
C821        C  0.31392069  0.71369663  0.12993985     0.00700
C822        C  0.32505164  0.69509137  0.10189875    -0.07700
C823        C  0.30792127  0.70913904  0.07185951     0.62600
H824        H  0.36246515  0.64548722  0.08034419     0.13300
H825        H  0.33729750  0.72253262  0.17340575     0.13300
C826        C  0.40288409  0.66492548  0.17812219     0.62900
F827        F  0.33944898  0.70883780  0.05226369    -0.22300
F828        F  0.28713345  0.74766606  0.07198563    -0.19600
F829        F  0.28274064  0.68303195  0.06120644    -0.19300
F830        F  0.44227797  0.66396743  0.16865532    -0.19400
F831        F  0.39909105  0.62870625  0.19082214    -0.19700
F832        F  0.39551361  0.69467053  0.19962553    -0.22400
C833        C  0.37629330  0.91704789  0.09214297    -0.05200
C834        C  0.39109953  0.92815556  0.11975955     0.00700
C835        C  0.37846780  0.91073234  0.14567571    -0.07800
C836        C  0.35074844  0.88324062  0.14296125    -0.05200
C837        C  0.33592889  0.87248516  0.11542596     0.00700
C838        C  0.34864526  0.88939237  0.08964808    -0.07700
C839        C  0.33324092  0.87730505  0.05985435     0.62600
H840        H  0.38651881  0.93027004  0.07253670     0.13300
H841        H  0.34047649  0.86945646  0.16229998     0.13300
C842        C  0.39558997  0.91952746  0.17587396     0.62900
F843        F  0.34995246  0.89604380  0.03713080    -0.22300
F844        F  0.29158001  0.88761883  0.05840236    -0.19600
F845        F  0.34313497  0.83622333  0.05594579    -0.19300
F846        F  0.38301943  0.95916018  0.18386109    -0.19400
F847        F  0.43749136  0.91219894  0.17524414    -0.19700
F848        F  0.38289839  0.89568958  0.19738668    -0.22400
C849        C  0.15061299  0.64318373  0.94772026    -0.05200
C850        C  0.16185658  0.65630607  0.92032779     0.00700
C851        C  0.14731916  0.64015260  0.89403544    -0.07800
C852        C  0.11988168  0.61274786  0.89607765    -0.05200
C853        C  0.10734269  0.60069675  0.92341162     0.00700
C854        C  0.12380186  0.61490017  0.94977109    -0.07700
C855        C  0.11456275  0.59896281  0.97963241     0.62600
H856        H  0.16321639  0.65529606  0.96742223     0.13300
H857        H  0.10738437  0.60089477  0.87621834     0.13300
C858        C  0.16012672  0.65227672  0.86399295     0.62900
F859        F  0.13903951  0.61156837  0.00163272    -0.22300
F860        F  0.12123318  0.55742605  0.97888055    -0.19600
F861        F  0.07463546  0.61225267  0.98684460    -0.19300
F862        F  0.20183809  0.64477086  0.86170543    -0.19400
F863        F  0.14686459  0.69256881  0.86016113    -0.19700
F864        F  0.14381914  0.63142230  0.84139755    -0.22400
C865        C  0.35972198  0.63126169  0.93640344    -0.05200
C866        C  0.38601608  0.62281209  0.91275712     0.00700
C867        C  0.38274317  0.64877918  0.88856705    -0.07800
C868        C  0.35117356  0.68144811  0.88816983    -0.05200
C869        C  0.32188215  0.68831844  0.91053093     0.00700
C870        C  0.32883358  0.66453718  0.93663847    -0.07700
C871        C  0.30704474  0.67195328  0.96609867     0.62600
H872        H  0.36416465  0.61201122  0.95546853     0.13300
H873        H  0.35124686  0.70319221  0.87119724     0.13300
C874        C  0.41365807  0.64296658  0.86399872     0.62900
F875        F  0.33567004  0.67299605  0.98833310    -0.22300
F876        F  0.28587083  0.64055987  0.97134205    -0.19600
F877        F  0.28055202  0.70724458  0.96840556    -0.19300
F878        F  0.41433713  0.60552967  0.85091351    -0.19400
F879        F  0.45166430  0.64597653  0.87551785    -0.19700
F880        F  0.40488973  0.67146366  0.84230263    -0.22400
C881        C  0.12147476  0.85715429  0.89419912    -0.05200
C882        C  0.11996617  0.88118160  0.91963595     0.00700
C883        C  0.14911815  0.87177027  0.94208157    -0.07800
C884        C  0.18115392  0.84033805  0.93700756    -0.05200
C885        C  0.18494464  0.81730405  0.91043976     0.00700
C886        C  0.15141952  0.82349737  0.89010470    -0.07700
C887        C  0.14225871  0.79553364  0.86510430     0.62600
H888        H  0.09737735  0.86356754  0.87791012     0.13300
H889        H  0.20284472  0.83292072  0.95463019     0.13300
C890        C  0.14635619  0.89488012  0.97120657     0.62900
F891        F  0.10460538  0.78433132  0.86970872    -0.22300
F892        F  0.16949653  0.76093150  0.86274126    -0.19600
F893        F  0.14092674  0.81547609  0.83863859    -0.19300
F894        F  0.11197165  0.88830404  0.98592169    -0.19400
F895        F  0.14433732  0.93551834  0.96620939    -0.19700
F896        F  0.17952505  0.88305322  0.98932532    -0.22400
C897        C  0.40025443  0.87604330  0.95112850    -0.05200
C898        C  0.40060791  0.89848033  0.92519676     0.00700
C899        C  0.37385485  0.89153522  0.90150258    -0.07800
C900        C  0.34650183  0.86420967  0.90556001    -0.05200
C901        C  0.34606650  0.84269801  0.93158622     0.00700
C902        C  0.37378260  0.84775880  0.95448544    -0.07700
C903        C  0.37468763  0.82359533  0.98242970     0.62600
H904        H  0.42090518  0.88079457  0.96897131     0.13300
H905        H  0.32523715  0.85883513  0.88826620     0.13300
C906        C  0.37440191  0.91148004  0.87170560     0.63700
F907        F  0.40140032  0.83536352  0.00322943    -0.22300
F908        F  0.38679221  0.78337607  0.97603183    -0.19600
F909        F  0.33642197  0.82855187  0.99454550    -0.19300
F910        F  0.41345153  0.90592222  0.86087655    -0.19400
F911        F  0.36012807  0.95205263  0.87443832    -0.19700
F912        F  0.35013959  0.89543311  0.85109631    -0.22400
C913        C  0.47907078  0.47229513  0.79044561    -0.05200
C914        C  0.00350081  0.99763181  0.80462872     0.00700
C915        C  0.02629907  0.02092072  0.78728385    -0.07800
C916        C  0.02301816  0.01841739  0.75633708    -0.05200
C917        C  0.99871151  0.99314297  0.74244578     0.00700
C918        C  0.47689368  0.46920128  0.75953049    -0.07700
C919        C  0.45195588  0.44034061  0.74478666     0.62600
H920        H  0.46227844  0.45427187  0.80379454     0.13300
H921        H  0.03962097  0.03597590  0.74248091     0.13300
C922        C  0.05326706  0.04894491  0.80101270     0.62900
F923        F  0.43137513  0.92113836  0.76512494    -0.22300
F924        F  0.47694950  0.91183990  0.72883784    -0.19600
F925        F  0.42363782  0.46098195  0.72593408    -0.19300
F926        F  0.08592012  0.02683254  0.81518453    -0.19400
F927        F  0.03095305  0.57499171  0.82110244    -0.19700
F928        F  0.06800280  0.57226369  0.78018026    -0.22400
C929        C  0.27915773  0.78485127  0.75138846    -0.05200
C930        C  0.25654240  0.75764565  0.73750060     0.00700
C931        C  0.23669593  0.73215967  0.75513557    -0.07800
C932        C  0.23888889  0.73618344  0.78600902    -0.05200
C933        C  0.26081647  0.76381736  0.79959286     0.00700
C934        C  0.28188885  0.78804175  0.78229566    -0.07700
C935        C  0.30796185  0.81611429  0.79677280     0.62600
H936        H  0.29478393  0.80364099  0.73780790     0.13300
H937        H  0.22379424  0.71750256  0.80004727     0.13300
C938        C  0.21484568  0.69963681  0.74173958     0.62900
F939        F  0.32634060  0.83713007  0.77619756    -0.22300
F940        F  0.33798538  0.79414203  0.81361185    -0.19600
F941        F  0.28443676  0.84355328  0.81476465    -0.19300
F942        F  0.23992240  0.67644121  0.72197710    -0.19400
F943        F  0.17992188  0.71686820  0.72739968    -0.19700
F944        F  0.20388110  0.67435584  0.76296704    -0.22400
C945        C  0.36326389  0.59696207  0.63601736    -0.05200
C946        C  0.37363111  0.63503638  0.63103433     0.00700
C947        C  0.41466806  0.64051166  0.63384372    -0.07800
C948        C  0.44384388  0.60678822  0.63908763    -0.05200
C949        C  0.43470746  0.56737158  0.63814667     0.00700
C950        C  0.39283619  0.56347994  0.64186579    -0.07700
C951        C  0.37656429  0.52831981  0.65579809     0.62600
H952        H  0.33142394  0.59389088  0.63721307     0.13300
H953        H  0.47376993  0.61158421  0.64573640     0.13300
C954        C  0.42817152  0.68132734  0.63050951     0.62900
F955        F  0.35751543  0.54155124  0.68182040    -0.22300
F956        F  0.40587357  0.49645782  0.66255796    -0.19600
F957        F  0.34802089  0.01474176  0.63725673    -0.19300
F958        F  0.41516360  0.70603640  0.65419458    -0.19400
F959        F  0.41231302  0.69876753  0.60467346    -0.19700
F960        F  0.46995768  0.67829434  0.62927276    -0.22400
C961        C  0.13554179  0.89923272  0.64901877    -0.05200
C962        C  0.13422450  0.87024061  0.62683166     0.00700
C963        C  0.10258917  0.87488085  0.60590153    -0.07800
C964        C  0.07183951  0.90791393  0.60874570    -0.05200
C965        C  0.07056752  0.93596708  0.63242820     0.00700
C966        C  0.10558799  0.93330551  0.65145248    -0.07700
C967        C  0.11593009  0.96504908  0.67349673     0.62600
H968        H  0.16136993  0.89598450  0.66399369     0.13300
H969        H  0.04931779  0.91236879  0.59147683     0.13300
C970        C  0.10129380  0.84464114  0.58081137     0.62900
F971        F  0.15325382  0.97525219  0.66638961    -0.22300
F972        F  0.11878858  0.94921086  0.70149692    -0.19600
F973        F  0.08892575  0.49998635  0.67434210    -0.19300
F974        F  0.10041581  0.80696225  0.59220136    -0.19400
F975        F  0.13529606  0.84345568  0.56353103    -0.19700
F976        F  0.06744286  0.85418466  0.56291347    -0.22400
C977        C  0.36270686  0.87064990  0.58578225    -0.05200
C978        C  0.35384020  0.85823710  0.61414184     0.00700
C979        C  0.37191181  0.87473249  0.63915223    -0.07800
C980        C  0.39847322  0.90270895  0.63469245    -0.05200
C981        C  0.40783724  0.91426880  0.60641328     0.00700
C982        C  0.39002438  0.89810330  0.58154149    -0.07700
C983        C  0.40068315  0.90957100  0.55083140     0.62600
H984        H  0.34869385  0.85801584  0.56688098     0.13300
H985        H  0.41316910  0.91530455  0.65327358     0.13300
C986        C  0.36322225  0.86339068  0.67046985     0.62900
F987        F  0.38295838  0.88804295  0.52938841    -0.22300
F988        F  0.44222449  0.90190705  0.54721585    -0.19600
F989        F  0.38747450  0.95001955  0.54678976    -0.19300
F990        F  0.38022423  0.82404782  0.67544586    -0.19400
F991        F  0.32182945  0.86776120  0.67481773    -0.19700
F992        F  0.37934232  0.88737320  0.69117355    -0.22400
C993        C  0.14624200  0.62831193  0.58988908    -0.05200
C994        C  0.15169428  0.64736014  0.61725990     0.00700
C995        C  0.13018054  0.63695841  0.64217879    -0.07800
C996        C  0.10304951  0.60908855  0.63836988    -0.05200
C997        C  0.09730934  0.59087190  0.61100439     0.00700
C998        C  0.11946173  0.59993350  0.58645465    -0.07700
C999        C  0.11434915  0.57961178  0.55693559     0.62600
H1000       H  0.16292996  0.63604612  0.57104173     0.13300
H1001       H  0.08579051  0.60102488  0.65681280     0.13300
C1002       C  0.13626736  0.65403181  0.67286308     0.62900
F1003       F  0.13846820  0.59249295  0.53556348    -0.22300
F1004       F  0.07435838  0.58794771  0.54772909    -0.19600
F1005       F  0.12498960  0.53855686  0.55957400    -0.19300
F1006       F  0.11975835  0.69418541  0.67407271    -0.19400
F1007       F  0.17717243  0.64979842  0.67973544    -0.19700
F1008       F  0.11774423  0.63443395  0.69422839    -0.22400
O1009       O  0.69558023  0.33730406  0.60670378    -0.77900
C1010       C  0.82537358  0.32851218  0.61677009     0.83100
O1011       O  0.75866914  0.21677708  0.55090723    -0.79000
O1012       O  0.84024619  0.20051743  0.64206057    -0.80500
O1013       O  0.72277479  0.25132247  0.69114967    -0.80300
O1014       O  0.66650066  0.30674030  0.64213877    -0.78900
Zn1015     Zn  0.74665332  0.30012738  0.59573278     1.55700
O1016       O  0.78749337  0.26000241  0.69074431    -0.80300
Cd1017     Cd  0.70573671  0.25379576  0.64701039     1.59700
Cd1018     Cd  0.75972619  0.20289625  0.59565766     1.59600
O1019       O  0.67462996  0.20647852  0.63669417    -0.80300
O1020       O  0.75339326  0.25320187  0.62069338    -1.90800
Cd1021     Cd  0.80208453  0.25409196  0.64643352     1.59900
O1022       O  0.71163708  0.17147000  0.60198451    -0.80300
O1023       O  0.83298164  0.30038364  0.63531589    -0.78900
C1024       C  0.74938778  0.25051204  0.53822670     0.83600
C1025       C  0.66726550  0.33624630  0.62512612     0.83300
O1026       O  0.79396415  0.33153841  0.60017837    -0.77900
C1027       C  0.75545299  0.25597568  0.70467759     0.84100
O1028       O  0.74292709  0.28346767  0.55286010    -0.78000
C1029       C  0.68093282  0.17665681  0.61883872     0.84200
C1030       C  0.84049936  0.16883839  0.62636670     0.84500
O1031       O  0.81252358  0.16498370  0.60753646    -0.80400
C1032       C  0.53353732  0.46939731  0.63421477     0.30600
C1033       C  0.97041149  0.03228048  0.63516366     0.30600
C1034       C  0.99549331  0.46333150  0.61582004    -0.05600
C1035       C  0.51444727  0.48019390  0.66439156    -0.06400
C1036       C  0.54301828  0.00941055  0.62277802    -0.06300
C1037       C  0.96394372  0.49607864  0.61502617    -0.05600
C1038       C  0.98362494  0.01289893  0.66496060    -0.06400
C1039       C  0.51144968  0.04149360  0.62289184    -0.06300
C1040       C  0.92963804  0.48108178  0.60528822    -0.31700
N1041       N  0.93772714  0.44052692  0.60371147     0.14800
C1042       C  0.97712478  0.42958318  0.61107209    -0.31700
H1043       H  0.99028401  0.39906683  0.61634219     0.16800
C1044       C  0.97361192  0.02048104  0.69412959    -0.30600
N1045       N  0.49633198  0.49239389  0.71091351     0.13600
C1046       C  0.52108252  0.46741339  0.69298845    -0.30600
C1047       C  0.52824702  0.07407385  0.61287416    -0.30900
N1048       N  0.56859997  0.06309241  0.60890824     0.14100
H1049       H  0.51343263  0.10444336  0.60973469     0.16700
C1050       C  0.57781018  0.02344121  0.61437604    -0.30900
H1051       H  0.60824384  0.00695110  0.61497342     0.16700
H1052       H  0.54340133  0.44294335  0.70044804     0.16700
H1053       H  0.89989940  0.49775764  0.60288930     0.16800
H1054       H  0.95198636  0.04502571  0.70264707     0.16700
O1055       O  0.54591314  0.08004412  0.93869190    -0.77900
C1056       C  0.91815081  0.08801933  0.91506191     0.83100
O1057       O  0.50580209  0.47613316  0.99357901    -0.79000
O1058       O  0.92363190  0.45661324  0.90577870    -0.80500
O1059       O  0.53628208  0.00061472  0.85160910    -0.80300
O1060       O  0.58405734  0.04209513  0.90589166    -0.78900
Zn1061     Zn  0.49743686  0.05244875  0.94514016     1.55700
O1062       O  0.97031615  0.99761174  0.85082183    -0.80300
Cd1063     Cd  0.55067314  0.99736322  0.89608164     1.59700
Cd1064     Cd  0.50747385  0.45654827  0.94949766     1.59600
O1065       O  0.58682375  0.44311842  0.90246487    -0.80300
O1066       O  0.50224737  0.00293848  0.92192660    -1.90800
Cd1067     Cd  0.95437206  0.00309573  0.89506598     1.59900
O1068       O  0.56084653  0.41741501  0.94169177    -0.80300
O1069       O  0.91587701  0.05688738  0.89921180    -0.78900
C1070       C  0.49987505  0.01139976  0.00489281     0.83600
C1071       C  0.57761126  0.07257161  0.92304893     0.83300
O1072       O  0.94715624  0.09003647  0.93327608    -0.77900
C1073       C  0.50334141  0.49897526  0.83748907     0.84100
O1074       O  0.49524048  0.04252102  0.98892219    -0.78000
C1075       C  0.58753140  0.41592531  0.92165946     0.84200
C1076       C  0.92967469  0.42802173  0.92405025     0.84500
O1077       O  0.95989705  0.42433223  0.94186777    -0.80400
C1078       C  0.78619116  0.22261390  0.90697096     0.30600
C1079       C  0.72238488  0.28435591  0.90750907     0.30600
C1080       C  0.79174445  0.25852223  0.92689498    -0.05600
C1081       C  0.77543965  0.24325668  0.87689933    -0.06400
C1082       C  0.74521328  0.21174728  0.91536574    -0.06300
C1083       C  0.75924838  0.29039638  0.92725104    -0.05600
C1084       C  0.74395072  0.27597798  0.87753475    -0.06400
C1085       C  0.71307112  0.24291878  0.91638983    -0.06300
C1086       C  0.77692782  0.32490466  0.93078196    -0.31700
N1087       N  0.81749006  0.31512528  0.93405851     0.14800
C1088       C  0.82681559  0.27502159  0.93082272    -0.31700
H1089       H  0.85711767  0.25960108  0.92668244     0.16800
C1090       C  0.73839922  0.28980838  0.84909815    -0.30600
N1091       N  0.76309259  0.26488245  0.83111075     0.13600
C1092       C  0.78483170  0.23593765  0.84754343    -0.30600
C1093       C  0.67834568  0.22570585  0.91947617    -0.30900
N1094       N  0.68897964  0.18526071  0.91967821     0.14100
H1095       H  0.64745738  0.24113549  0.91934713     0.16700
C1096       C  0.72966847  0.17633876  0.91714628    -0.30900
H1097       H  0.74631068  0.14632322  0.91503628     0.16700
H1098       H  0.80368977  0.21005277  0.83815154     0.16700
H1099       H  0.76189824  0.35517450  0.92695876     0.16800
H1100       H  0.71616668  0.31432153  0.84165436     0.16700
O1101       O  0.55116303  0.43844342  0.11150696    -0.77900
C1102       C  0.92120958  0.45638971  0.12073754     0.83100
O1103       O  0.99081907  0.05212039  0.04831612    -0.79000
O1104       O  0.91374528  0.08671178  0.14151965    -0.80500
O1105       O  0.53391438  0.03604133  0.18865158    -0.80300
O1106       O  0.58433802  0.47518131  0.14154248    -0.78900
Zn1107     Zn  0.00151026  0.47656291  0.09759438     1.55700
O1108       O  0.96901678  0.02864137  0.19028466    -0.80300
Cd1109     Cd  0.54650848  0.02906625  0.14418664     1.59700
Cd1110     Cd  0.99035504  0.07380116  0.09179839     1.59600
O1111       O  0.57705403  0.07459299  0.13153541    -0.80300
O1112       O  0.99705457  0.02731935  0.11940039    -1.90800
Cd1113     Cd  0.95009296  0.03204978  0.14660840     1.59900
O1114       O  0.53835818  0.10702492  0.09674020    -0.80300
O1115       O  0.91573759  0.48676758  0.13810698    -0.78900
C1116       C  0.99830201  0.01663627  0.03727135     0.83600
C1117       C  0.58096233  0.44191277  0.12874952     0.83300
O1118       O  0.95204180  0.44949661  0.10409091    -0.77900
C1119       C  0.00244696  0.03240022  0.20319193     0.84100
O1120       O  0.00451082  0.48571620  0.05353534    -0.78000
C1121       C  0.56983614  0.10319702  0.11338112     0.84200
C1122       C  0.91196870  0.11450485  0.12267530     0.84500
O1123       O  0.93701583  0.11292034  0.10142690    -0.80400
C1124       C  0.71279887  0.30807117  0.13807678     0.30600
C1125       C  0.77672980  0.24624802  0.13467224     0.30600
C1126       C  0.75281352  0.31851973  0.12583802    -0.05600
C1127       C  0.72581807  0.28663164  0.16706522    -0.06400
C1128       C  0.70618346  0.27208851  0.11727516    -0.06300
C1129       C  0.78523144  0.28754106  0.12546064    -0.05600
C1130       C  0.75810792  0.25512164  0.16571406    -0.06400
C1131       C  0.73866991  0.24025815  0.11665309    -0.06300
C1132       C  0.81954910  0.30376794  0.11914136    -0.31700
N1133       N  0.80860332  0.34346525  0.11420246     0.14800
C1134       C  0.76786566  0.35244912  0.11712575    -0.31700
H1135       H  0.75099000  0.38212156  0.11449677     0.16800
C1136       C  0.76304608  0.24003467  0.19403552    -0.30600
N1137       N  0.73541656  0.26182290  0.21201735     0.13600
C1138       C  0.71267752  0.29036447  0.19574564    -0.30600
C1139       C  0.72279567  0.20589565  0.10938180    -0.30900
N1140       N  0.68286566  0.21554742  0.10304509     0.14100
H1141       H  0.73813885  0.17549898  0.11220221     0.16700
C1142       C  0.67251965  0.25559406  0.10750181    -0.30900
H1143       H  0.64158620  0.27019216  0.10616054     0.16700
H1144       H  0.68886377  0.31277034  0.20433578     0.16700
H1145       H  0.85042859  0.28848471  0.12004713     0.16800
H1146       H  0.78530326  0.21547787  0.20140933     0.16700
C1147       C  0.95777205  0.04134010  0.40392354     0.30600
C1148       C  0.52049029  0.47798589  0.40558538     0.30600
C1149       C  0.94736315  0.00097094  0.41469846    -0.05600
C1150       C  0.97969129  0.03001383  0.37475105    -0.06400
C1151       C  0.49381601  0.04716590  0.42524680    -0.06300
C1152       C  0.97890394  0.46900953  0.41474046    -0.05600
C1153       C  0.51214757  0.49868625  0.37551474    -0.06400
C1154       C  0.52600521  0.01462852  0.42524084    -0.06300
C1155       C  0.96274706  0.43474147  0.42066105    -0.31700
N1156       N  0.92238223  0.44511949  0.42463680     0.14800
C1157       C  0.91314231  0.48558272  0.42293553    -0.31700
H1158       H  0.88331799  0.00193051  0.42594503     0.16800
C1159       C  0.52710215  0.49455042  0.34713764    -0.30600
N1160       N  0.00315635  0.02052506  0.32938415     0.13600
C1161       C  0.97476948  0.04295712  0.34617970    -0.30600
C1162       C  0.56121717  0.03060174  0.43064024    -0.30900
N1163       N  0.55229261  0.07048641  0.43516520     0.14100
H1164       H  0.59170115  0.01495507  0.42767424     0.16700
C1165       C  0.51169082  0.08080203  0.43286839    -0.30900
H1166       H  0.49730694  0.11155938  0.43432150     0.16700
H1167       H  0.95133628  0.06593650  0.33795364     0.16700
H1168       H  0.97871071  0.40425538  0.42033598     0.16800
H1169       H  0.55270134  0.47361729  0.33958321     0.16700
O1170       O  0.69754456  0.17786562  0.44251541    -0.77900
C1171       C  0.82575691  0.17514205  0.41423936     0.83100
O1172       O  0.73504644  0.28606678  0.49396110    -0.79000
O1173       O  0.81230527  0.30686194  0.40783751    -0.80500
O1174       O  0.70213255  0.25352950  0.35237778    -0.80300
O1175       O  0.65699030  0.21096156  0.40868610    -0.78900
Zn1176     Zn  0.74668053  0.20670462  0.44646167     1.55700
O1177       O  0.76661076  0.26323896  0.35283986    -0.80300
Cd1178     Cd  0.68836208  0.25705860  0.39743330     1.59700
Cd1179     Cd  0.73157907  0.30332783  0.45040550     1.59600
O1180       O  0.65111808  0.31121123  0.40431216    -0.80300
O1181       O  0.73755790  0.25551026  0.42321918    -1.90800
Cd1182     Cd  0.78382108  0.25862275  0.39677469     1.59900
O1183       O  0.67853979  0.34126545  0.44171560    -0.80300
O1184       O  0.82501893  0.20739361  0.40000215    -0.78900
C1185       C  0.74566035  0.25201571  0.50581255     0.83600
C1186       C  0.66483877  0.18279493  0.42728178     0.83300
O1187       O  0.79753551  0.17013169  0.43199285    -0.77900
C1188       C  0.73413049  0.25913004  0.33889767     0.84100
O1189       O  0.75280136  0.21970509  0.49040517    -0.78000
C1190       C  0.65087744  0.34085402  0.42224735     0.84200
C1191       C  0.80612871  0.33536052  0.42683312     0.84500
O1192       O  0.77684959  0.33779663  0.44467718    -0.80400
C1193       C  0.62596577  0.13321203  0.40507667    -0.05200
C1194       C  0.63558182  0.15429549  0.43040087     0.00700
C1195       C  0.61668221  0.14837712  0.45746944    -0.07800
C1196       C  0.58936749  0.12029479  0.45832024    -0.05200
C1197       C  0.58087809  0.09825013  0.43314985     0.00700
C1198       C  0.59903938  0.10497767  0.40593485    -0.07700
C1199       C  0.58998322  0.08265132  0.37783171     0.62600
H1200       H  0.64049150  0.13853834  0.38460166     0.13300
H1201       H  0.57444887  0.11507559  0.47863933     0.13300
C1202       C  0.62432331  0.17252742  0.48496209     0.62900
F1203       F  0.60631508  0.09790672  0.35333393    -0.22300
F1204       F  0.54860807  0.08591905  0.37335094    -0.19600
F1205       F  0.60639540  0.04262332  0.37977712    -0.19300
F1206       F  0.61649980  0.21310062  0.47901142    -0.19400
F1207       F  0.66420857  0.16269111  0.49404219    -0.19700
F1208       F  0.59973520  0.16516352  0.50797327    -0.22400
C1209       C  0.57585165  0.43720756  0.43589008    -0.05200
C1210       C  0.55379182  0.44094279  0.40896352     0.00700
C1211       C  0.56104203  0.40786447  0.38865503    -0.07800
C1212       C  0.59440449  0.37792640  0.39341518    -0.05200
C1213       C  0.61786785  0.37586682  0.41936654     0.00700
C1214       C  0.60791852  0.40597081  0.44145820    -0.07700
C1215       C  0.63018149  0.40560679  0.47100918     0.62600
H1216       H  0.56721489  0.45869006  0.45339084     0.13300
H1217       H  0.60094657  0.35445788  0.37677328     0.13300
C1218       C  0.53414551  0.39923206  0.36288569     0.62900
F1219       F  0.61311759  0.43616307  0.48979907    -0.22300
F1220       F  0.67002197  0.41075565  0.46669763    -0.19600
F1221       F  0.62890492  0.36964175  0.48496836    -0.19300
F1222       F  0.55432475  0.40200575  0.33675501    -0.19400
F1223       F  0.99759289  0.42408364  0.36215201    -0.19700
F1224       F  0.52577966  0.36036928  0.36492660    -0.22400
C1225       C  0.93071465  0.11581687  0.40167737    -0.05200
C1226       C  0.92213412  0.07630061  0.40085414     0.00700
C1227       C  0.88089558  0.07217666  0.39453431    -0.07800
C1228       C  0.85041861  0.10412036  0.40199452    -0.05200
C1229       C  0.85977281  0.14228029  0.40909810     0.00700
C1230       C  0.90062192  0.14893250  0.40713048    -0.07700
C1231       C  0.91289245  0.19035037  0.41101983     0.62600
H1232       H  0.96089155  0.12094630  0.39660424     0.13300
H1233       H  0.81886865  0.10039310  0.39915269     0.13300
C1234       C  0.86760186  0.04081228  0.37366194     0.62900
F1235       F  0.95455113  0.18843416  0.41333521    -0.22300
F1236       F  0.89609624  0.20858824  0.43645788    -0.19600
F1237       F  0.89977122  0.21370063  0.38701475    -0.19300
F1238       F  0.83843768  0.02183533  0.38657604    -0.19400
F1239       F  0.89918973  0.01253489  0.36457733    -0.19700
F1240       F  0.85063154  0.05982332  0.34868841    -0.22400
C1241       C  0.86786812  0.41868113  0.44954457    -0.05200
C1242       C  0.89293755  0.41812911  0.42502775     0.00700
C1243       C  0.88627342  0.39386376  0.40021497    -0.07800
C1244       C  0.85782098  0.36757631  0.40217718    -0.05200
C1245       C  0.83384349  0.36622989  0.42724227     0.00700
C1246       C  0.83744580  0.39390386  0.45093365    -0.07700
C1247       C  0.80942002  0.39825528  0.47728471     0.62600
H1248       H  0.87234734  0.43915550  0.46752447     0.13300
H1249       H  0.85416797  0.34772546  0.38364760     0.13300
C1250       C  0.90885885  0.39507151  0.37157723     0.62900
F1251       F  0.81837264  0.42752955  0.49702042    -0.22300
F1252       F  0.81289376  0.36237532  0.49213041    -0.19600
F1253       F  0.76982633  0.40940370  0.46783875    -0.19300
F1254       F  0.91151162  0.43413384  0.36420901    -0.19400
F1255       F  0.94712712  0.87335554  0.37464798    -0.19700
F1256       F  0.88956674  0.37822526  0.34835897    -0.22400
C1257       C  0.74677375  0.29225715  0.25996464    -0.05200
C1258       C  0.73486120  0.26022249  0.24372236     0.00700
C1259       C  0.72118817  0.22836356  0.25868730    -0.07800
C1260       C  0.72071741  0.22929707  0.28981733    -0.05200
C1261       C  0.73389055  0.26082784  0.30615687     0.00700
C1262       C  0.74670799  0.29318392  0.29099359    -0.07700
C1263       C  0.75923752  0.32913880  0.30737125     0.62600
H1264       H  0.75654195  0.31647948  0.24788786     0.13300
H1265       H  0.71067987  0.20502136  0.30168082     0.13300
C1266       C  0.70634158  0.19420551  0.24169824     0.62900
F1267       F  0.76478084  0.35953597  0.28837279    -0.22300
F1268       F  0.79534089  0.31777070  0.32234607    -0.19600
F1269       F  0.72953269  0.34451779  0.32720440    -0.19300
F1270       F  0.73775339  0.17304718  0.22574906    -0.19400
F1271       F  0.67547734  0.20943106  0.22256331    -0.19700
F1272       F  0.69162645  0.16766768  0.26024543    -0.22400
C1273       C  0.02794885  0.04809609  0.28482626    -0.05200
C1274       C  0.00472476  0.02193829  0.29780737     0.00700
C1275       C  0.98103518  0.49965478  0.27995513    -0.07800
C1276       C  0.98158356  0.50403241  0.24930639    -0.05200
C1277       C  0.00470654  0.03015760  0.23588730     0.00700
C1278       C  0.02836405  0.05284632  0.25398890    -0.07700
C1279       C  0.05245751  0.08315418  0.24120105     0.62600
H1280       H  0.04527770  0.06517018  0.29926044     0.13300
H1281       H  0.96391811  0.48667591  0.23534258     0.13300
C1282       C  0.95521366  0.47127522  0.29309562     0.62900
F1283       F  0.06860534  0.10542940  0.26301771    -0.22300
F1284       F  0.02747631  0.10952212  0.22352113    -0.19600
F1285       F  0.58414917  0.06370074  0.22475627    -0.19300
F1286       F  0.92718264  0.49218334  0.31188991    -0.19400
F1287       F  0.47964440  0.44183792  0.30837154    -0.19700
F1288       F  0.93427167  0.45261584  0.27175130    -0.22400
C1289       C  0.60323039  0.15086721  0.08416188    -0.05200
C1290       C  0.59897668  0.13260333  0.11146209     0.00700
C1291       C  0.62247671  0.14298781  0.13609786    -0.07800
C1292       C  0.64966834  0.17042075  0.13214743    -0.05200
C1293       C  0.65442704  0.18763944  0.10485820     0.00700
C1294       C  0.63091553  0.17814496  0.08043893    -0.07700
C1295       C  0.63633363  0.19585325  0.05054565     0.62600
H1296       H  0.58538436  0.14287530  0.06549926     0.13300
H1297       H  0.66794234  0.17884819  0.15043304     0.13300
C1298       C  0.61894684  0.12609920  0.16668334     0.62900
F1299       F  0.61010774  0.18354297  0.02962026    -0.22300
F1300       F  0.67564719  0.18386456  0.04121501    -0.19600
F1301       F  0.62891228  0.23727641  0.05237022    -0.19300
F1302       F  0.63493162  0.08579328  0.16672888    -0.19400
F1303       F  0.57874638  0.13107545  0.17496906    -0.19700
F1304       F  0.63990970  0.14523609  0.18775237    -0.22400
C1305       C  0.65143202  0.41467838  0.14347244    -0.05200
C1306       C  0.61285288  0.40690481  0.13449160     0.00700
C1307       C  0.60496180  0.36669974  0.13539778    -0.07800
C1308       C  0.63773191  0.33593150  0.14037759    -0.05200
C1309       C  0.67796594  0.34345329  0.14216419     0.00700
C1310       C  0.68310700  0.38360149  0.15001556    -0.07700
C1311       C  0.71692553  0.39560025  0.16957124     0.62600
H1312       H  0.65648083  0.44544759  0.14699849     0.13300
H1313       H  0.63187534  0.30596049  0.14412014     0.13300
C1314       C  0.56242341  0.35603784  0.13228776     0.62900
F1315       F  0.73569804  0.42410974  0.15583676    -0.22300
F1316       F  0.74582220  0.36384222  0.17749467    -0.19600
F1317       F  0.69999810  0.41271004  0.19532527    -0.19300
F1318       F  0.54853720  0.36238895  0.10368130    -0.19400
F1319       F  0.53659568  0.37935917  0.15151589    -0.19700
F1320       F  0.56131494  0.31616675  0.13864470    -0.22400
C1321       C  0.85585190  0.16169843  0.10096981    -0.05200
C1322       C  0.87966525  0.14962323  0.12567510     0.00700
C1323       C  0.87369653  0.17253948  0.15210636    -0.07800
C1324       C  0.84091095  0.20410248  0.15370561    -0.05200
C1325       C  0.81389387  0.21370330  0.12992839     0.00700
C1326       C  0.82500633  0.19510991  0.10188104    -0.07700
C1327       C  0.80785917  0.20918347  0.07185225     0.62600
H1328       H  0.86238969  0.14550283  0.08030528     0.13300
H1329       H  0.83728266  0.22249289  0.17339898     0.13300
C1330       C  0.90289263  0.16489959  0.17806877     0.62900
F1331       F  0.83936610  0.20881285  0.05222920    -0.22300
F1332       F  0.78715102  0.24774341  0.07199071    -0.19600
F1333       F  0.78259668  0.18314067  0.06122444    -0.19300
F1334       F  0.94227441  0.16395910  0.16858044    -0.19400
F1335       F  0.89912680  0.12867033  0.19076381    -0.19700
F1336       F  0.89553668  0.19463221  0.19958242    -0.22400
C1337       C  0.87649033  0.41697450  0.09219212    -0.05200
C1338       C  0.89117070  0.42814205  0.11983340     0.00700
C1339       C  0.87839866  0.41078412  0.14573306    -0.07800
C1340       C  0.85067572  0.38329881  0.14297221    -0.05200
C1341       C  0.83599324  0.37247519  0.11541014     0.00700
C1342       C  0.84884809  0.38931792  0.08965053    -0.07700
C1343       C  0.83359734  0.37716852  0.05982628     0.62600
H1344       H  0.88681396  0.43014999  0.07259993     0.13300
H1345       H  0.84029737  0.36956687  0.16229663     0.13300
C1346       C  0.89537528  0.41963176  0.17596738     0.62900
F1347       F  0.85041119  0.39587810  0.03713481    -0.22300
F1348       F  0.79194033  0.38745764  0.05826299    -0.19600
F1349       F  0.84353326  0.33608347  0.05596591    -0.19300
F1350       F  0.88278228  0.45928164  0.18389592    -0.19400
F1351       F  0.93728002  0.41228342  0.17544884    -0.19700
F1352       F  0.88256316  0.39584311  0.19746369    -0.22400
C1353       C  0.65029915  0.14341925  0.94773423    -0.05200
C1354       C  0.66163103  0.15642749  0.92033072     0.00700
C1355       C  0.64712344  0.14022108  0.89404810    -0.07800
C1356       C  0.61967123  0.11283933  0.89610867    -0.05200
C1357       C  0.60709732  0.10084996  0.92344887     0.00700
C1358       C  0.62348124  0.11514648  0.94980501    -0.07700
C1359       C  0.61419318  0.09928844  0.97968256     0.62600
H1360       H  0.66286875  0.15558732  0.96742786     0.13300
H1361       H  0.60721012  0.10093101  0.87625588     0.13300
C1362       C  0.65998572  0.15224945  0.86399429     0.62900
F1363       F  0.63851173  0.11209324  0.00170493    -0.22300
F1364       F  0.62103878  0.05775338  0.97902029    -0.19600
F1365       F  0.57420759  0.11244754  0.98680115    -0.19300
F1366       F  0.70169568  0.14465687  0.86172740    -0.19400
F1367       F  0.64680422  0.19254549  0.86010991    -0.19700
F1368       F  0.64365199  0.13138320  0.84141697    -0.22400
C1369       C  0.85958153  0.13115950  0.93636149    -0.05200
C1370       C  0.88583619  0.12265214  0.91269744     0.00700
C1371       C  0.88254628  0.14857966  0.88848492    -0.07800
C1372       C  0.85098875  0.18125908  0.88807865    -0.05200
C1373       C  0.82173695  0.18819421  0.91046391     0.00700
C1374       C  0.82870720  0.16444898  0.93658885    -0.07700
C1375       C  0.80697781  0.17193070  0.96606828     0.62600
H1376       H  0.86405025  0.11194921  0.95544791     0.13300
H1377       H  0.85105278  0.20296973  0.87108074     0.13300
C1378       C  0.91345596  0.14272930  0.86391288     0.62900
F1379       F  0.83564774  0.17312828  0.98825177    -0.22300
F1380       F  0.78590549  0.14049523  0.97142039    -0.19600
F1381       F  0.78040560  0.20717260  0.96834092    -0.19300
F1382       F  0.91409034  0.10529680  0.85082972    -0.19400
F1383       F  0.95147426  0.14569618  0.87542881    -0.19700
F1384       F  0.90471907  0.17122895  0.84221644    -0.22400
C1385       C  0.62141284  0.35713580  0.89425822    -0.05200
C1386       C  0.61994668  0.38116246  0.91969389     0.00700
C1387       C  0.64915642  0.37176965  0.94210420    -0.07800
C1388       C  0.68118338  0.34033867  0.93700158    -0.05200
C1389       C  0.68492525  0.31730398  0.91043401     0.00700
C1390       C  0.65136236  0.32349309  0.89012998    -0.07700
C1391       C  0.64217729  0.29555460  0.86511801     0.62600
H1392       H  0.59728551  0.36354723  0.87799177     0.13300
H1393       H  0.70291070  0.33292665  0.95460167     0.13300
C1394       C  0.64648318  0.39491247  0.97121422     0.62900
F1395       F  0.60450904  0.28438007  0.86971109    -0.22300
F1396       F  0.66938550  0.26093329  0.86274411    -0.19600
F1397       F  0.64086491  0.31551534  0.83866085    -0.19300
F1398       F  0.61212131  0.38839469  0.98598302    -0.19400
F1399       F  0.64449734  0.43553819  0.96618194    -0.19700
F1400       F  0.67968620  0.38307475  0.98929942    -0.22400
C1401       C  0.90029626  0.37592659  0.95112164    -0.05200
C1402       C  0.90061836  0.39844970  0.92522819     0.00700
C1403       C  0.87385963  0.39154706  0.90152560    -0.07800
C1404       C  0.84653835  0.36417445  0.90553721    -0.05200
C1405       C  0.84612271  0.34258566  0.93152967     0.00700
C1406       C  0.87383835  0.34761316  0.95443890    -0.07700
C1407       C  0.87473482  0.32340788  0.98236292     0.62600
H1408       H  0.92094772  0.38064767  0.96897097     0.13300
H1409       H  0.82526921  0.35883797  0.88823658     0.13300
C1410       C  0.87435566  0.41160235  0.87176711     0.63700
F1411       F  0.90150667  0.33508695  0.00315476    -0.22300
F1412       F  0.88675539  0.28318595  0.97592959    -0.19600
F1413       F  0.83648343  0.32841991  0.99450548    -0.19300
F1414       F  0.91339469  0.40613309  0.86092054    -0.19400
F1415       F  0.86003375  0.45215601  0.87458041    -0.19700
F1416       F  0.85010134  0.39559422  0.85113211    -0.22400
C1417       C  0.97908622  0.97239895  0.79039377    -0.05200
C1418       C  0.50337986  0.49762334  0.80468597     0.00700
C1419       C  0.52608878  0.52100836  0.78735192    -0.07800
C1420       C  0.52283643  0.51849521  0.75640606    -0.05200
C1421       C  0.49864839  0.49311658  0.74250613     0.00700
C1422       C  0.97687322  0.96931691  0.75948053    -0.07700
C1423       C  0.95181674  0.94054914  0.74475250     0.62600
H1424       H  0.96223183  0.95443827  0.80374633     0.13300
H1425       H  0.53936923  0.53612846  0.74255711     0.13300
C1426       C  0.55291845  0.54915471  0.80109483     0.62900
F1427       F  0.93152469  0.42090330  0.76513424    -0.22300
F1428       F  0.97711723  0.41175545  0.72885677    -0.19600
F1429       F  0.92355914  0.96126136  0.72589248    -0.19300
F1430       F  0.58561267  0.52716405  0.81530320    -0.19400
F1431       F  0.53136914  0.07484663  0.82105480    -0.19700
F1432       F  0.56835661  0.07204357  0.78010010    -0.22400
C1433       C  0.77909483  0.28465366  0.75135001    -0.05200
C1434       C  0.75633460  0.25758000  0.73745362     0.00700
C1435       C  0.73632347  0.23221852  0.75508320    -0.07800
C1436       C  0.73851517  0.23623850  0.78595797    -0.05200
C1437       C  0.76060910  0.26373065  0.79954509     0.00700
C1438       C  0.78183642  0.28782085  0.78225509    -0.07700
C1439       C  0.80808169  0.31572409  0.79674063     0.62600
H1440       H  0.79483830  0.30335201  0.73777780     0.13300
H1441       H  0.72330636  0.21765175  0.79999441     0.13300
C1442       C  0.71431912  0.19980906  0.74168538     0.62900
F1443       F  0.82660476  0.33662144  0.77617220    -0.22300
F1444       F  0.83799816  0.29360291  0.81358265    -0.19600
F1445       F  0.78468132  0.34326651  0.81473146    -0.19300
F1446       F  0.73934577  0.17647738  0.72196618    -0.19400
F1447       F  0.67948704  0.21717190  0.72729717    -0.19700
F1448       F  0.70316921  0.17463474  0.76291690    -0.22400
C1449       C  0.86327264  0.09694577  0.63597493    -0.05200
C1450       C  0.87363510  0.13502845  0.63101579     0.00700
C1451       C  0.91467296  0.14049910  0.63381862    -0.07800
C1452       C  0.94385718  0.10676431  0.63901628    -0.05200
C1453       C  0.93471786  0.06734680  0.63806557     0.00700
C1454       C  0.89284868  0.06345622  0.64179874    -0.07700
C1455       C  0.87658495  0.02828632  0.65572328     0.62600
H1456       H  0.83143378  0.09387254  0.63717457     0.13300
H1457       H  0.97379188  0.11155173  0.64564756     0.13300
C1458       C  0.92816226  0.18133060  0.63054817     0.62900
F1459       F  0.85755482  0.04149878  0.68175619    -0.22300
F1460       F  0.90589696  0.99641848  0.66246528    -0.19600
F1461       F  0.84801339  0.51476798  0.63732604    -0.19300
F1462       F  0.91518455  0.20594974  0.65428721    -0.19400
F1463       F  0.91225892  0.19886435  0.60475532    -0.19700
F1464       F  0.96994505  0.17831007  0.62928114    -0.22400
C1465       C  0.63548457  0.39914144  0.64901119    -0.05200
C1466       C  0.63416709  0.37022493  0.62676831     0.00700
C1467       C  0.60254668  0.37495929  0.60582627    -0.07800
C1468       C  0.57181003  0.40799855  0.60871833    -0.05200
C1469       C  0.57053864  0.43597171  0.63245402     0.00700
C1470       C  0.60555239  0.43322682  0.65148829    -0.07700
C1471       C  0.61590840  0.46489359  0.67358915     0.62600
H1472       H  0.66130067  0.39582629  0.66399797     0.13300
H1473       H  0.54928751  0.41251732  0.59145190     0.13300
C1474       C  0.60124075  0.34480646  0.58068033     0.62900
F1475       F  0.65326683  0.47506131  0.66653817    -0.22300
F1476       F  0.61870073  0.44898426  0.70156714    -0.19600
F1477       F  0.58890428  0.00011306  0.67424401    -0.19300
F1478       F  0.60026724  0.30710579  0.59200099    -0.19400
F1479       F  0.63528267  0.34360896  0.56344031    -0.19700
F1480       F  0.56743244  0.35446524  0.56275791    -0.22400
C1481       C  0.86265565  0.37072035  0.58584335    -0.05200
C1482       C  0.85379859  0.35828627  0.61420053     0.00700
C1483       C  0.87187971  0.37477505  0.63921153    -0.07800
C1484       C  0.89843224  0.40276376  0.63475394    -0.05200
C1485       C  0.90778633  0.41433975  0.60647688     0.00700
C1486       C  0.88996620  0.39818327  0.58160519    -0.07700
C1487       C  0.90060477  0.40967536  0.55089632     0.62600
H1488       H  0.84863835  0.35809702  0.56693964     0.13300
H1489       H  0.91313504  0.41535137  0.65333500     0.13300
C1490       C  0.86322351  0.36340575  0.67052803     0.62900
F1491       F  0.88292826  0.38810788  0.52945290    -0.22300
F1492       F  0.94214867  0.40208607  0.54728068    -0.19600
F1493       F  0.88732422  0.45011150  0.54685551    -0.19300
F1494       F  0.88024431  0.32406258  0.67548052    -0.19400
F1495       F  0.82183630  0.36775900  0.67489622    -0.19700
F1496       F  0.87935421  0.38737876  0.69123360    -0.22400
C1497       C  0.64625164  0.12825759  0.58978889    -0.05200
C1498       C  0.65175452  0.14723979  0.61717629     0.00700
C1499       C  0.63031249  0.13675910  0.64210503    -0.07800
C1500       C  0.60314119  0.10893190  0.63828239    -0.05200
C1501       C  0.59732408  0.09080371  0.61089607     0.00700
C1502       C  0.61945721  0.09989408  0.58634377    -0.07700
C1503       C  0.61431627  0.07961399  0.55681296     0.62600
H1504       H  0.66290767  0.13603512  0.57093839     0.13300
H1505       H  0.58592070  0.10082486  0.65673221     0.13300
C1506       C  0.63654323  0.15368243  0.67281459     0.62900
F1507       F  0.63845832  0.09248404  0.53545062    -0.22300
F1508       F  0.57432917  0.08800960  0.54760908    -0.19600
F1509       F  0.62490435  0.03854959  0.55942804    -0.19300
F1510       F  0.62004544  0.19383221  0.67415585    -0.19400
F1511       F  0.67747964  0.14941248  0.67958701    -0.19700
F1512       F  0.61812191  0.13397529  0.69417205    -0.22400
O1513       O  0.69561742  0.83731917  0.60679011    -0.77900
C1514       C  0.82541664  0.82847113  0.61671207     0.83100
O1515       O  0.75858448  0.71681044  0.55095095    -0.79000
O1516       O  0.84025754  0.70051603  0.64204498    -0.80500
O1517       O  0.72296020  0.75132126  0.69122297    -0.80300
O1518       O  0.66660974  0.80679742  0.64228522    -0.78900
Zn1519     Zn  0.74664715  0.80013682  0.59577266     1.55700
O1520       O  0.78765912  0.76007598  0.69075197    -0.80300
Cd1521     Cd  0.70581784  0.75383082  0.64710670     1.59700
Cd1522     Cd  0.75968813  0.70291646  0.59570196     1.59600
O1523       O  0.67463548  0.70656215  0.63680495    -0.80300
O1524       O  0.75341443  0.75321802  0.62073463    -1.90800
Cd1525     Cd  0.80214523  0.75410155  0.64642658     1.59900
O1526       O  0.71157386  0.67153747  0.60207064    -0.80300
O1527       O  0.83306020  0.80033205  0.63524372    -0.78900
C1528       C  0.74929722  0.75054580  0.53827037     0.83600
C1529       C  0.66734599  0.83628471  0.62525073     0.83300
O1530       O  0.79396591  0.83152839  0.60016349    -0.77900
C1531       C  0.75565546  0.75601010  0.70471477     0.84100
O1532       O  0.74284764  0.78350098  0.55290324    -0.78000
C1533       C  0.68088492  0.67674688  0.61894051     0.84200
C1534       C  0.84048904  0.66883639  0.62635815     0.84500
O1535       O  0.81249169  0.66497998  0.60754557    -0.80400
C1536       C  0.53356837  0.96938499  0.63420067     0.30600
C1537       C  0.97040888  0.53231972  0.63525723     0.30600
C1538       C  0.99550062  0.96328591  0.61572696    -0.05600
C1539       C  0.51447983  0.98021311  0.66437128    -0.06400
C1540       C  0.54299934  0.50943845  0.62282581    -0.06300
C1541       C  0.96394228  0.99602938  0.61494031    -0.05600
C1542       C  0.98360637  0.51293156  0.66505334    -0.06400
C1543       C  0.51143072  0.54152139  0.62295060    -0.06300
C1544       C  0.92964364  0.98102732  0.60519742    -0.31700
N1545       N  0.93774465  0.94047482  0.60360460     0.14800
C1546       C  0.97714297  0.92953484  0.61096600    -0.31700
H1547       H  0.99030173  0.89902060  0.61623402     0.16800
C1548       C  0.97357801  0.52051672  0.69421747    -0.30600
N1549       N  0.49637761  0.99244685  0.71089099     0.13600
C1550       C  0.52113169  0.96746135  0.69297301    -0.30600
C1551       C  0.52822236  0.57411264  0.61295342    -0.30900
N1552       N  0.56857769  0.56314557  0.60900138     0.14100
H1553       H  0.51340169  0.60448097  0.60981714     0.16700
C1554       C  0.57779593  0.52348864  0.61445285    -0.30900
H1555       H  0.60823185  0.50700467  0.61505469     0.16700
H1556       H  0.54346305  0.94300518  0.70043969     0.16700
H1557       H  0.89988376  0.99770120  0.60281764     0.16800
H1558       H  0.95195285  0.54506620  0.70272974     0.16700
O1559       O  0.54612994  0.57996364  0.93867414    -0.77900
C1560       C  0.91828137  0.58814391  0.91513344     0.83100
O1561       O  0.50585933  0.97608478  0.99353625    -0.79000
O1562       O  0.92370748  0.95653768  0.90562268    -0.80500
O1563       O  0.53623245  0.50052136  0.85160727    -0.80300
O1564       O  0.58413822  0.54203176  0.90579272    -0.78900
Zn1565     Zn  0.49758092  0.55247272  0.94515405     1.55700
O1566       O  0.97018705  0.49763333  0.85092437    -0.80300
Cd1567     Cd  0.55068153  0.49732060  0.89606921     1.59700
Cd1568     Cd  0.50746782  0.95652544  0.94945640     1.59600
O1569       O  0.58684066  0.94316228  0.90244048    -0.80300
O1570       O  0.50228416  0.50295285  0.92195123    -1.90800
Cd1571     Cd  0.95432841  0.50314525  0.89518825     1.59900
O1572       O  0.56079644  0.91736590  0.94159839    -0.80300
O1573       O  0.91591032  0.55698360  0.89933749    -0.78900
C1574       C  0.49989588  0.51145041  0.00493638     0.83600
C1575       C  0.57777928  0.57248348  0.92297882     0.83300
O1576       O  0.94734158  0.59015596  0.93330322    -0.77900
C1577       C  0.50341578  0.99900793  0.83747298     0.84100
O1578       O  0.49535257  0.54257063  0.98896048    -0.78000
C1579       C  0.58751017  0.91591842  0.92159130     0.84200
C1580       C  0.92972913  0.92798543  0.92392684     0.84500
O1581       O  0.95991944  0.92432855  0.94177061    -0.80400
C1582       C  0.78627762  0.72268851  0.90703027     0.30600
C1583       C  0.72240742  0.78437036  0.90750319     0.30600
C1584       C  0.79176217  0.75862203  0.92694220    -0.05600
C1585       C  0.77553764  0.74329422  0.87694414    -0.06400
C1586       C  0.74531324  0.71178257  0.91541399    -0.06300
C1587       C  0.75924108  0.79047316  0.92725629    -0.05600
C1588       C  0.74401297  0.77598183  0.87754429    -0.06400
C1589       C  0.71313280  0.74292118  0.91640193    -0.06300
C1590       C  0.77688691  0.82500578  0.93076149    -0.31700
N1591       N  0.81744642  0.81525571  0.93406973     0.14800
C1592       C  0.82680763  0.77515208  0.93088265    -0.31700
H1593       H  0.85712703  0.75974625  0.92678226     0.16800
C1594       C  0.73851013  0.78979892  0.84910113    -0.30600
N1595       N  0.76328053  0.76490287  0.83114231     0.13600
C1596       C  0.78501586  0.73598568  0.84760197    -0.30600
C1597       C  0.67843309  0.72565359  0.91945974    -0.30900
N1598       N  0.68912401  0.68521298  0.91968971     0.14100
H1599       H  0.64752854  0.74104145  0.91929113     0.16700
C1600       C  0.72981853  0.67634744  0.91718694    -0.30900
H1601       H  0.74649979  0.64634860  0.91508183     0.16700
H1602       H  0.80394087  0.71012486  0.83823661     0.16700
H1603       H  0.76184361  0.85525985  0.92689664     0.16800
H1604       H  0.71626363  0.81428405  0.84163141     0.16700
O1605       O  0.55102399  0.93835034  0.11145108    -0.77900
C1606       C  0.92116918  0.95637757  0.12068022     0.83100
O1607       O  0.99086314  0.55218780  0.04839536    -0.79000
O1608       O  0.91374915  0.58674344  0.14159022    -0.80500
O1609       O  0.53400211  0.53600089  0.18876214    -0.80300
O1610       O  0.58420705  0.97508710  0.14147508    -0.78900
Zn1611     Zn  0.00144846  0.97649896  0.09750075     1.55700
O1612       O  0.96898898  0.52864596  0.19038593    -0.80300
Cd1613     Cd  0.54658133  0.52911145  0.14429095     1.59700
Cd1614     Cd  0.99037652  0.57384402  0.09188482     1.59600
O1615       O  0.57708363  0.57468344  0.13167411    -0.80300
O1616       O  0.99707082  0.52737386  0.11949814    -1.90800
Cd1617     Cd  0.95009095  0.53207400  0.14669443     1.59900
O1618       O  0.53842348  0.60702188  0.09681806    -0.80300
O1619       O  0.91573685  0.98674835  0.13805617    -0.78900
C1620       C  0.99835045  0.51670508  0.03735087     0.83600
C1621       C  0.58082085  0.94180946  0.12869654     0.83300
O1622       O  0.95196478  0.94947656  0.10400113    -0.77900
C1623       C  0.00241465  0.53240778  0.20330125     0.84100
O1624       O  0.00446156  0.98564473  0.05345142    -0.78000
C1625       C  0.56987375  0.60324456  0.11348405     0.84200
C1626       C  0.91197316  0.61452779  0.12273718     0.84500
O1627       O  0.93702844  0.61294346  0.10149470    -0.80400
C1628       C  0.71273459  0.80802249  0.13810559     0.30600
C1629       C  0.77670402  0.74623263  0.13469436     0.30600
C1630       C  0.75275546  0.81851179  0.12590736    -0.05600
C1631       C  0.72574590  0.78655778  0.16708888    -0.06400
C1632       C  0.70617445  0.77205550  0.11726844    -0.06300
C1633       C  0.78518622  0.78754089  0.12551730    -0.05600
C1634       C  0.75805719  0.75506707  0.16573081    -0.06400
C1635       C  0.73867263  0.74024086  0.11665207    -0.06300
C1636       C  0.81950304  0.80378431  0.11924003    -0.31700
N1637       N  0.80854912  0.84348779  0.11434334     0.14800
C1638       C  0.76780943  0.85246569  0.11725450    -0.31700
H1639       H  0.75093350  0.88214259  0.11465130     0.16800
C1640       C  0.76304750  0.74000230  0.19405437    -0.30600
N1641       N  0.73543472  0.76178669  0.21204826     0.13600
C1642       C  0.71264807  0.79030223  0.19578144    -0.30600
C1643       C  0.72283181  0.70587561  0.10934244    -0.30900
N1644       N  0.68291297  0.71551654  0.10297144     0.14100
H1645       H  0.73817737  0.67548203  0.11217410     0.16700
C1646       C  0.67254567  0.75555913  0.10742834    -0.30900
H1647       H  0.64161122  0.77014457  0.10604125     0.16700
H1648       H  0.68884464  0.81270952  0.20438420     0.16700
H1649       H  0.85038427  0.78850329  0.12013456     0.16800
H1650       H  0.78533613  0.71547099  0.20142501     0.16700
C1651       C  0.95782412  0.54134056  0.40407478     0.30600
C1652       C  0.52045721  0.97796225  0.40546775     0.30600
C1653       C  0.94739716  0.50096807  0.41482842    -0.05600
C1654       C  0.97972912  0.53004587  0.37489397    -0.06400
C1655       C  0.49381569  0.54715300  0.42540700    -0.06300
C1656       C  0.97888069  0.96901818  0.41462490    -0.05600
C1657       C  0.51210111  0.99861687  0.37538523    -0.06400
C1658       C  0.52600893  0.51462045  0.42539983    -0.06300
C1659       C  0.96274158  0.93474986  0.42056203    -0.31700
N1660       N  0.92237866  0.94512033  0.42453920     0.14800
C1661       C  0.91312091  0.98558133  0.42282239    -0.31700
H1662       H  0.88333615  0.50193658  0.42604756     0.16800
C1663       C  0.52703866  0.99441886  0.34700780    -0.30600
N1664       N  0.00316618  0.52061162  0.32951421     0.13600
C1665       C  0.97479550  0.54302768  0.34633165    -0.30600
C1666       C  0.56121618  0.53058749  0.43082999    -0.30900
N1667       N  0.55229547  0.57047468  0.43534215     0.14100
H1668       H  0.59170090  0.51493941  0.42786984     0.16700
C1669       C  0.51169336  0.58079245  0.43302267    -0.30900
H1670       H  0.49730995  0.61155501  0.43443501     0.16700
H1671       H  0.95135960  0.56601983  0.33812581     0.16700
H1672       H  0.97871558  0.90426710  0.42025154     0.16800
H1673       H  0.55261427  0.97344672  0.33946061     0.16700
O1674       O  0.69760898  0.67782051  0.44254541    -0.77900
C1675       C  0.82586706  0.67516788  0.41438942     0.83100
O1676       O  0.73497382  0.78609530  0.49399306    -0.79000
O1677       O  0.81235125  0.80680862  0.40789645    -0.80500
O1678       O  0.70226490  0.75343867  0.35239868    -0.80300
O1679       O  0.65704082  0.71089003  0.40871299    -0.78900
Zn1680     Zn  0.74671139  0.70670147  0.44651953     1.55700
O1681       O  0.76673943  0.76316460  0.35289026    -0.80300
Cd1682     Cd  0.68841571  0.75699923  0.39744467     1.59700
Cd1683     Cd  0.73158125  0.80333482  0.45042221     1.59600
O1684       O  0.65114230  0.81116837  0.40426456    -0.80300
O1685       O  0.73758905  0.75548914  0.42325802    -1.90800
Cd1686     Cd  0.78388547  0.75857683  0.39683869     1.59900
O1687       O  0.67854886  0.84127032  0.44165126    -0.80300
O1688       O  0.82511832  0.70739371  0.40012305    -0.78900
C1689       C  0.74557988  0.75204791  0.50585539     0.83600
C1690       C  0.66489849  0.68273143  0.42731701     0.83300
O1691       O  0.79762539  0.67016236  0.43212641    -0.77900
C1692       C  0.73427410  0.75904357  0.33893274     0.84100
O1693       O  0.75274660  0.71973377  0.49045659    -0.78000
C1694       C  0.65089220  0.84083802  0.42217805     0.84200
C1695       C  0.80618061  0.83532043  0.42687880     0.84500
O1696       O  0.77689347  0.83778117  0.44471972    -0.80400
C1697       C  0.62593394  0.63317451  0.40515846    -0.05200
C1698       C  0.63563752  0.65423395  0.43047173     0.00700
C1699       C  0.61682543  0.64828666  0.45757244    -0.07800
C1700       C  0.58949216  0.62022231  0.45845860    -0.05200
C1701       C  0.58089558  0.59822248  0.43329257     0.00700
C1702       C  0.59899389  0.60495305  0.40605350    -0.07700
C1703       C  0.58984786  0.58264462  0.37796305     0.62600
H1704       H  0.64039858  0.63851221  0.38466110     0.13300
H1705       H  0.57463383  0.61499049  0.47880042     0.13300
C1706       C  0.62455886  0.67240639  0.48506159     0.62900
F1707       F  0.60620344  0.59783355  0.35344901    -0.22300
F1708       F  0.54846081  0.58602299  0.37350985    -0.19600
F1709       F  0.60615768  0.54258924  0.37990928    -0.19300
F1710       F  0.61665577  0.71298633  0.47914658    -0.19400
F1711       F  0.66448672  0.66260575  0.49405093    -0.19700
F1712       F  0.60009041  0.66497609  0.50812606    -0.22400
C1713       C  0.57587859  0.93723571  0.43576345    -0.05200
C1714       C  0.55376010  0.94091221  0.40886090     0.00700
C1715       C  0.56097253  0.90778450  0.38859138    -0.07800
C1716       C  0.59434361  0.87784728  0.39335576    -0.05200
C1717       C  0.61786891  0.87584963  0.41927829     0.00700
C1718       C  0.60795881  0.90601069  0.44133651    -0.07700
C1719       C  0.63027375  0.90571658  0.47086315     0.62600
H1720       H  0.56727459  0.95875404  0.45324668     0.13300
H1721       H  0.60084556  0.85433319  0.37674365     0.13300
C1722       C  0.53403338  0.89910495  0.36285978     0.62900
F1723       F  0.61325221  0.93632449  0.48962595    -0.22300
F1724       F  0.67010978  0.91083971  0.46649712    -0.19600
F1725       F  0.62900770  0.86979160  0.48488087    -0.19300
F1726       F  0.55419889  0.90176728  0.33670843    -0.19400
F1727       F  0.99760376  0.92403308  0.36204454    -0.19700
F1728       F  0.52562233  0.86026816  0.36498429    -0.22400
C1729       C  0.93081004  0.61581742  0.40178003    -0.05200
C1730       C  0.92220762  0.57631027  0.40102620     0.00700
C1731       C  0.88096224  0.57219192  0.39475848    -0.07800
C1732       C  0.85051204  0.60413109  0.40225562    -0.05200
C1733       C  0.85988736  0.64230682  0.40927376     0.00700
C1734       C  0.90073195  0.64895538  0.40720576    -0.07700
C1735       C  0.91301370  0.69038937  0.41093131     0.62600
H1736       H  0.96098981  0.62091318  0.39667393     0.13300
H1737       H  0.81895580  0.60040046  0.39946182     0.13300
C1738       C  0.86764788  0.54091668  0.37382080     0.62900
F1739       F  0.95468050  0.68848599  0.41314559    -0.22300
F1740       F  0.89631557  0.70876311  0.43635359    -0.19600
F1741       F  0.89979996  0.71360625  0.38687879    -0.19300
F1742       F  0.83843370  0.52194138  0.38667077    -0.19400
F1743       F  0.89921529  0.51263055  0.36472053    -0.19700
F1744       F  0.85074214  0.56002787  0.34886571    -0.22400
C1745       C  0.86787309  0.91872537  0.44947839    -0.05200
C1746       C  0.89295473  0.91811567  0.42496518     0.00700
C1747       C  0.88633735  0.89376110  0.40019315    -0.07800
C1748       C  0.85791819  0.86744802  0.40220088    -0.05200
C1749       C  0.83390659  0.86617931  0.42725978     0.00700
C1750       C  0.83746969  0.89393369  0.45090420    -0.07700
C1751       C  0.80942225  0.89835830  0.47724196     0.62600
H1752       H  0.87232587  0.93926035  0.46742499     0.13300
H1753       H  0.85430839  0.84752917  0.38370428     0.13300
C1754       C  0.90891888  0.89490970  0.37154570     0.62900
F1755       F  0.81833857  0.92770889  0.49692591    -0.22300
F1756       F  0.81290895  0.86252938  0.49215372    -0.19600
F1757       F  0.76983328  0.90944882  0.46776794    -0.19300
F1758       F  0.91162435  0.93395160  0.36414884    -0.19400
F1759       F  0.94708604  0.37356333  0.37468305    -0.19700
F1760       F  0.88958106  0.87807157  0.34834636    -0.22400
C1761       C  0.74690401  0.79218560  0.25999420    -0.05200
C1762       C  0.73492678  0.76018038  0.24375381     0.00700
C1763       C  0.72126389  0.72832093  0.25872133    -0.07800
C1764       C  0.72083697  0.72923303  0.28985097    -0.05200
C1765       C  0.73405478  0.76073990  0.30619049     0.00700
C1766       C  0.74689558  0.79308556  0.29102547    -0.07700
C1767       C  0.75951451  0.82899951  0.30740321     0.62600
H1768       H  0.75667787  0.81640275  0.24791491     0.13300
H1769       H  0.71079017  0.70496170  0.30171387     0.13300
C1770       C  0.70637596  0.69418741  0.24173117     0.62900
F1771       F  0.76507566  0.85939613  0.28840927    -0.22300
F1772       F  0.79563457  0.81756239  0.32234135    -0.19600
F1773       F  0.72986436  0.84440784  0.32726873    -0.19300
F1774       F  0.73775560  0.67303145  0.22574917    -0.19400
F1775       F  0.67548835  0.70944646  0.22262598    -0.19700
F1776       F  0.69167689  0.66764084  0.26027894    -0.22400
C1777       C  0.02799228  0.54810195  0.28492730    -0.05200
C1778       C  0.00469001  0.52203218  0.29793233     0.00700
C1779       C  0.98116662  0.99948492  0.27981394    -0.07800
C1780       C  0.98169209  0.00391840  0.24917053    -0.05200
C1781       C  0.00467313  0.53018391  0.23600052     0.00700
C1782       C  0.02839407  0.55283041  0.25408565    -0.07700
C1783       C  0.05254124  0.58307711  0.24127277     0.62600
H1784       H  0.04539018  0.56512942  0.29934439     0.13300
H1785       H  0.96409266  0.98651497  0.23519112     0.13300
C1786       C  0.95551366  0.97092940  0.29292889     0.62900
F1787       F  0.06869778  0.60537437  0.26307058    -0.22300
F1788       F  0.02760344  0.60943503  0.22355762    -0.19600
F1789       F  0.58443374  0.56335741  0.22486221    -0.19300
F1790       F  0.92750774  0.99163689  0.31183780    -0.19400
F1791       F  0.48011345  0.94145290  0.30813166    -0.19700
F1792       F  0.93455465  0.95230685  0.27157353    -0.22400
C1793       C  0.60334250  0.65074732  0.08417958    -0.05200
C1794       C  0.59900490  0.63264456  0.11152914     0.00700
C1795       C  0.62244010  0.64314954  0.13616185    -0.07800
C1796       C  0.64962757  0.67057178  0.13216765    -0.05200
C1797       C  0.65448140  0.68761563  0.10482855     0.00700
C1798       C  0.63106217  0.67797218  0.08040482    -0.07700
C1799       C  0.63663929  0.69543901  0.05045328     0.62600
H1800       H  0.58555893  0.64264417  0.06551661     0.13300
H1801       H  0.66784184  0.67910959  0.15045166     0.13300
C1802       C  0.61887050  0.62637580  0.16677896     0.62900
F1803       F  0.61041628  0.68308342  0.02954491    -0.22300
F1804       F  0.67595978  0.68324228  0.04121038    -0.19600
F1805       F  0.62936756  0.73687580  0.05211819    -0.19300
F1806       F  0.63488151  0.58607872  0.16691023    -0.19400
F1807       F  0.57865810  0.63135462  0.17503270    -0.19700
F1808       F  0.63978684  0.64560577  0.18782249    -0.22400
C1809       C  0.65124626  0.91458327  0.14353210    -0.05200
C1810       C  0.61271148  0.90679423  0.13444928     0.00700
C1811       C  0.60487119  0.86656207  0.13523942    -0.07800
C1812       C  0.63764400  0.83582171  0.14029338    -0.05200
C1813       C  0.67786077  0.84337473  0.14218305     0.00700
C1814       C  0.68293649  0.88352345  0.15008122    -0.07700
C1815       C  0.71670145  0.89553910  0.16967886     0.62600
H1816       H  0.65625533  0.94535389  0.14711666     0.13300
H1817       H  0.63179818  0.80584127  0.14400955     0.13300
C1818       C  0.56239022  0.85582079  0.13188946     0.62900
F1819       F  0.73544551  0.92410613  0.15598955    -0.22300
F1820       F  0.74562882  0.86380392  0.17759340    -0.19600
F1821       F  0.69971414  0.91258471  0.19543371    -0.19300
F1822       F  0.54872419  0.86230432  0.10324392    -0.19400
F1823       F  0.53636711  0.87898301  0.15107772    -0.19700
F1824       F  0.56131396  0.81589367  0.13808491    -0.22400
C1825       C  0.85586787  0.66170981  0.10100551    -0.05200
C1826       C  0.87966508  0.64964202  0.12572077     0.00700
C1827       C  0.87368716  0.67257160  0.15214437    -0.07800
C1828       C  0.84090657  0.70413805  0.15372837    -0.05200
C1829       C  0.81388810  0.71371282  0.12994978     0.00700
C1830       C  0.82501646  0.69511661  0.10190569    -0.07700
C1831       C  0.80789458  0.70919000  0.07187002     0.62600
H1832       H  0.86242186  0.64551291  0.08034348     0.13300
H1833       H  0.83727576  0.72254429  0.17341328     0.13300
C1834       C  0.90285455  0.66492843  0.17812196     0.62900
F1835       F  0.83942327  0.70886432  0.05227175    -0.22300
F1836       F  0.78714667  0.74773414  0.07200828    -0.19600
F1837       F  0.78267997  0.68311904  0.06121184    -0.19300
F1838       F  0.94225473  0.66391102  0.16865163    -0.19400
F1839       F  0.89901320  0.62873291  0.19084005    -0.19700
F1840       F  0.89552308  0.69469861  0.19961010    -0.22400
C1841       C  0.87627101  0.91707445  0.09221800    -0.05200
C1842       C  0.89113779  0.92813339  0.11982655     0.00700
C1843       C  0.87855316  0.91067813  0.14574467    -0.07800
C1844       C  0.85082695  0.88319175  0.14303816    -0.05200
C1845       C  0.83594323  0.87248916  0.11550957     0.00700
C1846       C  0.84860513  0.88943799  0.08973171    -0.07700
C1847       C  0.83312006  0.87741974  0.05994523     0.62600
H1848       H  0.88645802  0.93032634  0.07261101     0.13300
H1849       H  0.84059216  0.86937889  0.16237729     0.13300
C1850       C  0.89571988  0.91944489  0.17593422     0.62900
F1851       F  0.84978084  0.89620154  0.03722066    -0.22300
F1852       F  0.79145832  0.88775373  0.05855304    -0.19600
F1853       F  0.84298795  0.83634391  0.05598383    -0.19300
F1854       F  0.88316575  0.95907247  0.18394318    -0.19400
F1855       F  0.93761962  0.91211214  0.17527350    -0.19700
F1856       F  0.88305422  0.89559172  0.19744787    -0.22400
C1857       C  0.65055056  0.64322440  0.94770708    -0.05200
C1858       C  0.66183073  0.65632334  0.92031758     0.00700
C1859       C  0.64732854  0.64015030  0.89402092    -0.07800
C1860       C  0.61989571  0.61274037  0.89605377    -0.05200
C1861       C  0.60732237  0.60070998  0.92338382     0.00700
C1862       C  0.62373639  0.61494388  0.94974995    -0.07700
C1863       C  0.61443440  0.59905386  0.97961349     0.62600
H1864       H  0.66312305  0.65535714  0.96741340     0.13300
H1865       H  0.60742927  0.60086728  0.87619007     0.13300
C1866       C  0.66016954  0.65226032  0.86398392     0.62900
F1867       F  0.63889760  0.61165617  0.00162350    -0.22300
F1868       F  0.62105865  0.55751616  0.97889043    -0.19600
F1869       F  0.57450432  0.61239670  0.98679040    -0.19300
F1870       F  0.70188199  0.64472520  0.86171368    -0.19400
F1871       F  0.64693928  0.69255653  0.86014773    -0.19700
F1872       F  0.64386067  0.63142009  0.84138133    -0.22400
C1873       C  0.85966516  0.63122757  0.93641008    -0.05200
C1874       C  0.88598911  0.62279814  0.91277905     0.00700
C1875       C  0.88274380  0.64878286  0.88860003    -0.07800
C1876       C  0.85117299  0.68145094  0.88819590    -0.05200
C1877       C  0.82186140  0.68830970  0.91054385     0.00700
C1878       C  0.82878863  0.66451392  0.93664534    -0.07700
C1879       C  0.80697947  0.67192797  0.96609702     0.62600
H1880       H  0.86408303  0.61196044  0.95546688     0.13300
H1881       H  0.85125750  0.70320376  0.87122902     0.13300
C1882       C  0.91368788  0.64298586  0.86405120     0.62900
F1883       F  0.83559096  0.67287113  0.98835301    -0.22300
F1884       F  0.78571832  0.64058526  0.97129559    -0.19600
F1885       F  0.78056484  0.70727038  0.96841617    -0.19300
F1886       F  0.91438803  0.60555333  0.85095423    -0.19400
F1887       F  0.95167936  0.64599632  0.87559756    -0.19700
F1888       F  0.90494147  0.67149227  0.84235959    -0.22400
C1889       C  0.62145439  0.85716111  0.89417490    -0.05200
C1890       C  0.61993372  0.88116311  0.91962506     0.00700
C1891       C  0.64908688  0.87174051  0.94206808    -0.07800
C1892       C  0.68113269  0.84032240  0.93698159    -0.05200
C1893       C  0.68492880  0.81730640  0.91040555     0.00700
C1894       C  0.65140318  0.82350967  0.89007038    -0.07700
C1895       C  0.64224500  0.79556165  0.86505998     0.62600
H1896       H  0.59736044  0.86358589  0.87788449     0.13300
H1897       H  0.70282948  0.83290132  0.95460028     0.13300
C1898       C  0.64631691  0.89482667  0.97120280     0.62900
F1899       F  0.60457372  0.78438598  0.86963866    -0.22300
F1900       F  0.66946152  0.76094371  0.86271109    -0.19600
F1901       F  0.64095634  0.81550766  0.83859759    -0.19300
F1902       F  0.61193499  0.88822780  0.98591137    -0.19400
F1903       F  0.64428631  0.93547057  0.96622367    -0.19700
F1904       F  0.67948685  0.88299412  0.98931901    -0.22400
C1905       C  0.90018325  0.87612274  0.95110863    -0.05200
C1906       C  0.90066296  0.89844185  0.92513265     0.00700
C1907       C  0.87403530  0.89138563  0.90138835    -0.07800
C1908       C  0.84664662  0.86409182  0.90544100    -0.05200
C1909       C  0.84607190  0.84270982  0.93151599     0.00700
C1910       C  0.87368302  0.84786490  0.95446519    -0.07700
C1911       C  0.87443268  0.82383787  0.98246415     0.62600
H1912       H  0.92074493  0.88095950  0.96898942     0.13300
H1913       H  0.82546637  0.85864220  0.88810843     0.13300
C1914       C  0.87477087  0.91116963  0.87154515     0.63700
F1915       F  0.90112941  0.83561693  0.00327105    -0.22300
F1916       F  0.88644274  0.78357373  0.97617275    -0.19600
F1917       F  0.83612507  0.82896040  0.99451785    -0.19300
F1918       F  0.91389722  0.90558943  0.86085929    -0.19400
F1919       F  0.86044662  0.95174725  0.87413033    -0.19700
F1920       F  0.85066700  0.89498409  0.85089734    -0.22400
C1921       C  0.97902780  0.47234409  0.79047068    -0.05200
C1922       C  0.50347257  0.99765464  0.80466722     0.00700
C1923       C  0.52626650  0.02095558  0.78732907    -0.07800
C1924       C  0.52299330  0.01845674  0.75638173    -0.05200
C1925       C  0.49869740  0.99317633  0.74248469     0.00700
C1926       C  0.97685560  0.46925953  0.75955500    -0.07700
C1927       C  0.95190958  0.44041263  0.74480319     0.62600
H1928       H  0.96222621  0.45432259  0.80381387     0.13300
H1929       H  0.53959344  0.03602338  0.74253002     0.13300
C1930       C  0.55321793  0.04899043  0.80106632     0.62900
F1931       F  0.93137328  0.92112838  0.76510208    -0.22300
F1932       F  0.97693814  0.91181610  0.72880893    -0.19600
F1933       F  0.92361319  0.46106436  0.72594029    -0.19300
F1934       F  0.58587026  0.02688981  0.81524719    -0.19400
F1935       F  0.53096916  0.57496548  0.82106099    -0.19700
F1936       F  0.56799790  0.57225140  0.78012918    -0.22400
C1937       C  0.77910019  0.78487450  0.75138147    -0.05200
C1938       C  0.75659249  0.75758686  0.73748457     0.00700
C1939       C  0.73686054  0.73199327  0.75510346    -0.07800
C1940       C  0.73904421  0.73599542  0.78597754    -0.05200
C1941       C  0.76084893  0.76372252  0.79957393     0.00700
C1942       C  0.78181845  0.78805312  0.78228910    -0.07700
C1943       C  0.80777640  0.81622357  0.79677806     0.62600
H1944       H  0.79464470  0.80374176  0.73780734     0.13300
H1945       H  0.72402719  0.71723632  0.80000496     0.13300
C1946       C  0.71513549  0.69939329  0.74168504     0.62900
F1947       F  0.82609373  0.83730651  0.77621106    -0.22300
F1948       F  0.83784421  0.79433766  0.81363005    -0.19600
F1949       F  0.78416126  0.84360300  0.81475876    -0.19300
F1950       F  0.74026621  0.67631263  0.72189361    -0.19400
F1951       F  0.68015488  0.71653210  0.72737033    -0.19700
F1952       F  0.70429247  0.67401960  0.76289332    -0.22400
C1953       C  0.86326035  0.59695827  0.63600460    -0.05200
C1954       C  0.87362342  0.63503071  0.63100835     0.00700
C1955       C  0.91465967  0.64051088  0.63380681    -0.07800
C1956       C  0.94383763  0.60679700  0.63907034    -0.05200
C1957       C  0.93470809  0.56737851  0.63814934     0.00700
C1958       C  0.89283561  0.56348201  0.64186309    -0.07700
C1959       C  0.87656095  0.52831988  0.65579123     0.62600
H1960       H  0.83142118  0.59388454  0.63720153     0.13300
H1961       H  0.97375974  0.61160462  0.64571852     0.13300
C1962       C  0.92816195  0.68132048  0.63043428     0.62900
F1963       F  0.85747826  0.54155444  0.68180050    -0.22300
F1964       F  0.90587398  0.49647045  0.66257229    -0.19600
F1965       F  0.84799946  0.01476839  0.63727464    -0.19300
F1966       F  0.91516884  0.70606347  0.65410474    -0.19400
F1967       F  0.91228928  0.69872401  0.60458977    -0.19700
F1968       F  0.96994731  0.67828317  0.62918174    -0.22400
C1969       C  0.63555560  0.89923401  0.64906219    -0.05200
C1970       C  0.63423226  0.87024273  0.62687486     0.00700
C1971       C  0.60259111  0.87488231  0.60594993    -0.07800
C1972       C  0.57185066  0.90792237  0.60879225    -0.05200
C1973       C  0.57058105  0.93597334  0.63247617     0.00700
C1974       C  0.60560152  0.93330659  0.65150071    -0.07700
C1975       C  0.61593924  0.96504229  0.67355281     0.62600
H1976       H  0.66138602  0.89598319  0.66403509     0.13300
H1977       H  0.54932993  0.91237976  0.59152276     0.13300
C1978       C  0.60127228  0.84462721  0.58087249     0.62900
F1979       F  0.65327344  0.97523526  0.66646313    -0.22300
F1980       F  0.61877222  0.94919971  0.70155162    -0.19600
F1981       F  0.58890738  0.49998695  0.67430560    -0.19300
F1982       F  0.60036375  0.80696410  0.59228099    -0.19400
F1983       F  0.63527691  0.84339889  0.56358905    -0.19700
F1984       F  0.56742473  0.85418072  0.56297278    -0.22400
C1985       C  0.86268796  0.87064905  0.58576010    -0.05200
C1986       C  0.85384019  0.85823195  0.61412249     0.00700
C1987       C  0.87191769  0.87473325  0.63912758    -0.07800
C1988       C  0.89847142  0.90271413  0.63465975    -0.05200
C1989       C  0.90781618  0.91427905  0.60637787     0.00700
C1990       C  0.88999094  0.89811436  0.58151122    -0.07700
C1991       C  0.90061217  0.90960326  0.55079791     0.62600
H1992       H  0.84866639  0.85801413  0.56686307     0.13300
H1993       H  0.91317568  0.91531036  0.65323655     0.13300
C1994       C  0.86324080  0.86339528  0.67044815     0.62900
F1995       F  0.88289141  0.88806297  0.52936070    -0.22300
F1996       F  0.94215106  0.90197741  0.54716222    -0.19600
F1997       F  0.88736357  0.95004700  0.54676691    -0.19300
F1998       F  0.88025688  0.82405737  0.67542696    -0.19400
F1999       F  0.82184995  0.86775302  0.67480194    -0.19700
F2000       F  0.87935643  0.88739019  0.69114559    -0.22400
C2001       C  0.64625253  0.62829393  0.58990844    -0.05200
C2002       C  0.65166661  0.64736196  0.61727792     0.00700
C2003       C  0.63009721  0.63699432  0.64218059    -0.07800
C2004       C  0.60297792  0.60911536  0.63835882    -0.05200
C2005       C  0.59728192  0.59087657  0.61099475     0.00700
C2006       C  0.61946492  0.59992606  0.58645838    -0.07700
C2007       C  0.61436143  0.57961850  0.55693252     0.62600
H2008       H  0.66296926  0.63601188  0.57107102     0.13300
H2009       H  0.58568696  0.60106646  0.65678913     0.13300
C2010       C  0.63609819  0.65412217  0.67286015     0.62900
F2011       F  0.63851007  0.59248782  0.53557486    -0.22300
F2012       F  0.57437940  0.58798813  0.54771073    -0.19600
F2013       F  0.62496836  0.53855924  0.55956378    -0.19300
F2014       F  0.61960362  0.69428211  0.67401173    -0.19400
F2015       F  0.67698333  0.64988188  0.67979790    -0.19700
F2016       F  0.61749476  0.63457909  0.69421394    -0.22400
loop_ 
_geom_bond_atom_site_label_1 
_geom_bond_atom_site_label_2 
_geom_bond_distance 
_geom_bond_site_symmetry_2 
_ccdc_geom_bond_type 
O1           C17   1.275       .  A
O1           Zn7   2.021       .  S
C2           O18   1.276       .  A
C2           O15   1.273       .  A
C2          C474   1.488       .  S
O3           C16   1.277       .  A
O3          Cd10   2.091       .  S
O4           C22   1.272       .  A
O4          Cd13   2.056       .  S
O5           C19   1.274       .  A
O5           Cd9   2.075       .  S
O6           C17   1.273       .  A
O6           Cd9   2.062       .  S
Zn7          O18   2.035       .  S
Zn7          O20   2.024       .  S
Zn7          O12   1.945       .  S
O8           C19   1.275       .  A
O8          Cd13   2.074       .  S
Cd9          O11   2.074       .  S
Cd9          O12   1.999       .  S
Cd10         O14   2.077       .  S
Cd10         O23   2.086       .  S
Cd10         O12   2.011       .  S
O11          C21   1.275       .  A
O12         Cd13   1.993       .  S
Cd13         O15   2.067       .  S
O14          C21   1.276       .  A
C16          O20   1.276       .  A
C16         C177   1.476       .  S
C17         C458   1.469       .  S
C19         C426   1.488       .  S
C21         C490   1.491       .  S
C22          O23   1.277       .  A
C22         C442   1.480       .  S
C24          C27   1.533       .  S
C24         C461   1.544       .  S
C24        C1034   1.549   1_455  S
C24         C532   1.531       .  S
C25          C30   1.542       .  S
C25         C445   1.552       .  S
C25         C533   1.555   1_545  S
C25        C1039   1.561       .  S
C26        C1032   1.550       .  S
C26          C34   1.383       .  A
C26          C29   1.407       .  A
C27          C38   1.379       .  A
C27        C1542   1.391   1_455  A
C28         C528   1.531   1_545  S
C28          C42   1.378       .  A
C28          C31   1.392       .  A
C29         C529   1.555       .  S
C29          C32   1.384       .  A
C30          C36   1.380       .  A
C30        C1539   1.391   1_545  A
C31        C1033   1.561   1_455  S
C31          C39   1.391       .  A
C32          N33   1.354       .  A
C32          H45   1.070       .  S
N33          C34   1.351       .  A
N33         C477   1.437       .  S
C34          H35   1.085       .  S
C36        N1549   1.357   1_545  A
C36          H46   1.082       .  S
N37          C38   1.356   1_655  A
N37        C1548   1.357       .  A
N37         C413   1.435       .  S
C38          H44   1.081       .  S
C39          N40   1.356       .  A
C39          H41   1.079       .  S
N40          C42   1.352       .  A
N40         C493   1.436       .  S
C42          H43   1.083       .  S
O47          C63   1.273       .  A
O47         Zn53   2.010   1_455  S
C48          O64   1.274       .  A
C48          O61   1.273       .  A
C48         C362   1.470       .  S
O49         C566   1.278   1_456  A
O49         Cd56   2.095       .  S
O50          C68   1.273       .  A
O50        Cd563   2.064       .  S
O51         C569   1.272   1_545  A
O51         Cd55   2.070   1_545  S
O52          C63   1.272       .  A
O52         Cd55   2.045   1_545  S
Zn53         O66   2.025       .  S
Zn53       O1072   2.018       .  S
Zn53         O58   1.945   1_655  S
O54        C1577   1.276       .  A
O54         Cd59   2.082   1_565  S
Cd55        O561   2.055       .  S
Cd55         O58   1.993   1_565  S
Cd56         O60   2.082       .  S
Cd56       O1077   2.076   1_455  S
Cd56        O562   2.004       .  S
O57          C67   1.272       .  A
O57        Cd559   2.055       .  S
O58        Cd560   2.004   1_545  S
O58       Cd1067   1.997   1_455  S
Cd59         O61   2.066       .  S
Cd59        O554   2.063   1_545  S
Cd59       O1066   1.997       .  S
O60          C67   1.276       .  A
C62          O66   1.274   1_554  A
C62         O553   1.278   1_644  A
C62        C1116   1.479       .  S
C63         C349   1.469       .  S
O64       Zn1061   2.018       .  S
C65         O555   1.272       .  A
C65        O1566   1.276   1_455  A
C65         C410   1.489       .  S
C67         C378   1.473       .  S
C68          O69   1.278       .  A
C68         C394   1.493       .  S
O69       Cd1064   2.076       .  S
C70          C72   1.531       .  S
C70          C74   1.522       .  S
C70          C73   1.556       .  S
C70         C365   1.538       .  S
C71          C75   1.549       .  S
C71          C77   1.537       .  S
C71          C76   1.549       .  S
C71         C381   1.548       .  S
C72          C80   1.378       .  A
C72          C75   1.407       .  A
C73          C84   1.382       .  A
C73          C76   1.405       .  A
C74          C88   1.375       .  A
C74          C77   1.385       .  A
C75          C78   1.387       .  A
C76          C82   1.380       .  A
C77          C85   1.381       .  A
C78          N79   1.351       .  A
C78          H91   1.083       .  S
N79          C80   1.347       .  A
N79         C397   1.433       .  S
C80          H81   1.083       .  S
C82          N83   1.356       .  A
C82          H92   1.080       .  S
N83          C84   1.354       .  A
N83         C429   1.434       .  S
C84          H90   1.081       .  S
C85          N86   1.356       .  A
C85          H87   1.083       .  S
N86          C88   1.352       .  A
N86         C346   1.430       .  S
C88          H89   1.082       .  S
O93         C109   1.276       .  A
O93       Zn1107   2.039       .  S
C94         O110   1.275       .  A
C94         O107   1.274       .  A
C94         C330   1.482       .  S
O95         C108   1.279       .  A
O95        Cd102   2.092       .  S
O96         C114   1.273       .  A
O96        Cd105   2.063       .  S
O97        C1119   1.271       .  A
O97        Cd101   2.069       .  S
O98         C109   1.273       .  A
O98        Cd605   2.053       .  S
Zn99        O110   2.029       .  S
Zn99        O112   2.035       .  S
Zn99       O1101   2.039       .  S
Zn99        O608   1.953       .  S
O100        C111   1.276       .  A
O100       Cd105   2.073       .  S
Cd101       O103   2.058       .  S
Cd101       O602   2.054   1_545  S
Cd101      O1112   1.994   1_455  S
Cd102       O115   2.096       .  S
Cd102      O1114   2.096       .  S
Cd102       O104   2.007       .  S
O103        C113   1.272       .  A
O104       Zn603   1.953   1_545  S
O104       Cd105   1.993       .  S
O104      Cd1109   1.994       .  S
Cd105       O611   2.071   1_545  S
O106        C113   1.278       .  A
O106      Cd1110   2.096   1_455  S
O107       Cd609   2.072       .  S
C108        O616   1.277   1_545  A
C108       C1070   1.479       .  S
C109        C298   1.490       .  S
C111       O1105   1.271       .  A
C111        C269   1.487       .  S
O112        C612   1.277       .  A
C113        C282   1.493       .  S
C114        O115   1.279       .  A
C114        C314   1.482       .  S
C116        C118   1.544       .  S
C116        C120   1.564       .  S
C116        C119   1.538       .  S
C116        C301   1.546       .  S
C117        C121   1.527       .  S
C117        C123   1.539       .  S
C117        C122   1.553       .  S
C117        C317   1.542       .  S
C118        C126   1.382       .  A
C118        C121   1.386       .  A
C119        C130   1.377       .  A
C119        C122   1.396       .  A
C120        C134   1.391       .  A
C120        C123   1.406       .  A
C121        C124   1.376       .  A
C122        C128   1.389       .  A
C123        C131   1.377       .  A
C124        N125   1.354       .  A
C124        H137   1.082       .  S
N125        C126   1.356       .  A
N125        C333   1.435       .  S
C126        H127   1.079       .  S
C128        N129   1.361       .  A
C128        H138   1.080       .  S
N129        C130   1.356       .  A
N129        C250   1.441       .  S
C130        H136   1.082       .  S
C131        N132   1.352       .  A
C131        H133   1.083       .  S
N132        C134   1.354       .  A
N132        C285   1.437       .  S
C134        H135   1.076       .  S
C139        C141   1.542       .  S
C139        C142   1.535       .  S
C139        C218   1.550       .  S
C139       C1151   1.567       .  S
C140        C145   1.546       .  S
C140        C202   1.550       .  S
C140       C1152   1.528   1_455  S
C140        C650   1.547       .  S
C141        C653   1.381   1_545  A
C141        C648   1.388   1_545  A
C142        C153   1.375       .  A
C142       C1657   1.395   1_545  A
C143       C1147   1.567       .  S
C143        C157   1.395   1_655  A
C143        C146   1.415   1_655  A
C144       C1148   1.528       .  S
C144        C147   1.377       .  A
C144        C645   1.388       .  A
C145        C151   1.384       .  A
C145       C1654   1.395   1_455  A
C146        C644   1.547   1_545  S
C146        C154   1.382       .  A
C147        N148   1.354       .  A
C147        H160   1.084       .  S
N148        C149   1.355       .  A
N148        C234   1.436       .  S
C149        C645   1.381       .  A
C149        H654   1.072       .  S
H150        C653   1.072   1_545  S
C151       N1664   1.359       .  A
C151        H161   1.079       .  S
N152        C153   1.354       .  A
N152       C1663   1.359   1_545  A
N152        C266   1.437       .  S
C153        H159   1.082       .  S
C154        N155   1.345       .  A
C154        H156   1.082       .  S
N155        C157   1.351       .  A
N155        C189   1.438       .  S
C157        H158   1.076   1_455  S
O162        C178   1.276       .  A
O162       Zn168   2.033       .  S
C163        O179   1.279       .  A
C163        O176   1.271       .  A
C163        C221   1.480       .  S
O164        C177   1.275       .  A
O164       Cd171   2.067       .  S
O165        C183   1.275       .  A
O165       Cd174   2.055       .  S
O166        C180   1.277       .  A
O166       Cd170   2.099       .  S
O167        C178   1.276       .  A
O167       Cd170   2.073       .  S
Zn168       O179   2.051       .  S
Zn168       O181   2.049       .  S
Zn168       O173   1.952       .  S
O169        C180   1.273       .  A
O169       Cd174   2.070       .  S
Cd170       O172   2.070       .  S
Cd170       O173   1.999       .  S
Cd171       O175   2.060       .  S
Cd171       O184   2.061       .  S
Cd171       O173   2.000       .  S
O172        C182   1.277       .  A
O173       Cd174   1.984       .  S
Cd174       O176   2.045       .  S
O175        C182   1.271       .  A
C177        O181   1.278       .  A
C178        C186   1.478       .  S
C180        C253   1.488       .  S
C182        C205   1.495       .  S
C183        O184   1.269       .  A
C183        C237   1.492       .  S
C185        C186   1.400       .  A
C185        C190   1.405       .  A
C185        H192   1.083       .  S
C186        C187   1.419       .  A
C187        C194   1.518       .  S
C187        C188   1.410       .  A
C188        C189   1.401       .  A
C188        H193   1.083       .  S
C189        C190   1.419       .  A
C190        C191   1.520       .  S
C191        F195   1.384       .  S
C191        F196   1.382       .  S
C191        F197   1.382       .  S
C194        F198   1.384       .  S
C194        F199   1.382       .  S
C194        F200   1.385       .  S
C201        C202   1.416       .  A
C201        C206   1.408       .  A
C201        H208   1.078       .  S
C202        C203   1.429       .  A
C203        C210   1.516       .  S
C203        C204   1.403       .  A
C204        C205   1.403       .  A
C204        H209   1.084       .  S
C205        C206   1.421       .  A
C206        C207   1.524       .  S
C207        F211   1.385       .  S
C207        F212   1.383       .  S
C207        F213   1.384       .  S
C210        F214   1.383       .  S
C210        F216   1.384       .  S
C210       F1223   1.372   1_455  S
F215       C1218   1.372       .  S
C217        C218   1.403       .  A
C217        C222   1.406       .  A
C217        H224   1.076       .  S
C218        C219   1.429       .  A
C219        C226   1.519       .  S
C219        C220   1.406       .  A
C220        C221   1.400       .  A
C220        H225   1.085       .  S
C221        C222   1.419       .  A
C222        C223   1.519       .  S
C223        F227   1.385       .  S
C223        F228   1.383       .  S
C223        F229   1.383       .  S
C226        F230   1.383       .  S
C226        F231   1.373       .  S
C226        F232   1.384       .  S
C233        C234   1.399       .  A
C233        C238   1.411       .  A
C233        H240   1.083       .  S
C234        C235   1.416       .  A
C235        C242   1.515       .  S
C235        C236   1.397       .  A
C236        C237   1.404       .  A
C236        H241   1.083       .  S
C237        C238   1.427       .  A
C238        C239   1.519       .  S
C239        F243   1.385       .  S
C239        F244   1.383       .  S
C239        F245   1.383       .  S
C242        F246   1.380       .  S
C242        F248   1.386       .  S
C242        F751   1.377       .  S
F247        C746   1.377       .  S
C249        C250   1.401       .  A
C249        C254   1.408       .  A
C249        H256   1.083       .  S
C250        C251   1.415       .  A
C251        C258   1.516       .  S
C251        C252   1.413       .  A
C252        C253   1.406       .  A
C252        H257   1.083       .  S
C253        C254   1.421       .  A
C254        C255   1.520       .  S
C255        F259   1.385       .  S
C255        F260   1.382       .  S
C255        F261   1.384       .  S
C258        F262   1.382       .  S
C258        F263   1.383       .  S
C258        F264   1.385       .  S
C265        C266   1.400       .  A
C265        C270   1.412       .  A
C265        H272   1.083       .  S
C266        C771   1.414   1_545  A
C267        C274   1.514       .  S
C267        C268   1.402       .  A
C267        C770   1.414       .  A
C268        C773   1.403       .  A
C268        H273   1.083       .  S
C269        C270   1.424       .  A
C269        C772   1.403       .  A
C270        C271   1.518       .  S
C271        F275   1.385       .  S
C271        F276   1.383       .  S
C271       F1285   1.382       .  S
C274        F278   1.379       .  S
C274        F280   1.385       .  S
C274       F1287   1.378       .  S
F277       C1279   1.382       .  S
F279       C1282   1.378       .  S
C281        C282   1.411       .  A
C281        C286   1.411       .  A
C281        H288   1.083       .  S
C282        C283   1.427       .  A
C283        C290   1.522       .  S
C283        C284   1.404       .  A
C284        C285   1.397       .  A
C284        H289   1.083       .  S
C285        C286   1.410       .  A
C286        C287   1.515       .  S
C287        F291   1.384       .  S
C287        F292   1.383       .  S
C287        F293   1.382       .  S
C290        F294   1.383       .  S
C290        F295   1.383       .  S
C290        F296   1.385       .  S
C297        C298   1.406       .  A
C297        C302   1.405       .  A
C297        H304   1.084       .  S
C298        C299   1.420       .  A
C299        C306   1.520       .  S
C299        C300   1.409       .  A
C300        C301   1.405       .  A
C300        H305   1.074       .  S
C301        C302   1.428       .  A
C302        C303   1.525       .  S
C303        F307   1.384       .  S
C303        F308   1.378       .  S
C303        F309   1.383       .  S
C306        F310   1.382       .  S
C306        F311   1.384       .  S
C306        F312   1.385       .  S
C313        C314   1.397       .  A
C313        C318   1.408       .  A
C313        H320   1.085       .  S
C314        C315   1.416       .  A
C315        C322   1.520       .  S
C315        C316   1.409       .  A
C316        C317   1.408       .  A
C316        H321   1.077       .  S
C317        C318   1.437       .  A
C318        C319   1.527       .  S
C319        F323   1.385       .  S
C319        F324   1.377       .  S
C319        F325   1.383       .  S
C322        F326   1.384       .  S
C322        F327   1.382       .  S
C322        F328   1.385       .  S
C329        C330   1.407       .  A
C329        C334   1.409       .  A
C329        H336   1.083       .  S
C330        C331   1.420       .  A
C331        C338   1.520       .  S
C331        C332   1.407       .  A
C332        C333   1.400       .  A
C332        H337   1.083       .  S
C333        C334   1.407       .  A
C334        C335   1.512       .  S
C335        F339   1.384       .  S
C335        F340   1.383       .  S
C335        F341   1.383       .  S
C338        F342   1.382       .  S
C338        F343   1.384       .  S
C338        F344   1.385       .  S
C345        C346   1.401       .  A
C345        C350   1.407       .  A
C345        H352   1.083       .  S
C346        C347   1.414       .  A
C347        C354   1.515       .  S
C347        C348   1.399       .  A
C348        C349   1.400       .  A
C348        H353   1.084       .  S
C349        C350   1.416       .  A
C350        C351   1.518       .  S
C351        F355   1.384   1_556  S
C351        F356   1.384       .  S
C351        F357   1.382       .  S
C354        F358   1.382       .  S
C354        F359   1.377       .  S
C354        F360   1.385       .  S
C361        C362   1.393       .  A
C361        C366   1.405       .  A
C361        H368   1.086       .  S
C362        C363   1.408       .  A
C363        C370   1.519       .  S
C363        C364   1.405       .  A
C364        C365   1.410       .  A
C364        H369   1.072       .  S
C365        C366   1.439       .  A
C366        C367   1.529       .  S
C367        F371   1.385       .  S
C367        F372   1.383       .  S
C367        F373   1.375       .  S
C370        F374   1.383       .  S
C370        F375   1.383       .  S
C370        F376   1.385       .  S
C377        C378   1.396       .  A
C377        C382   1.406       .  A
C377        H384   1.086       .  S
C378        C379   1.407       .  A
C379        C386   1.520       .  S
C379        C380   1.406       .  A
C380        C381   1.420       .  A
C380        H385   1.079       .  S
C381        C382   1.435       .  A
C382        C383   1.520       .  S
C383        F387   1.385       .  S
C383        F388   1.370       .  S
C383        F389   1.383       .  S
C386        F390   1.383       .  S
C386        F391   1.383       .  S
C386        F392   1.384       .  S
C393        C394   1.411       .  A
C393        C398   1.405       .  A
C393        H400   1.082       .  S
C394        C395   1.428       .  A
C395        C402   1.522       .  S
C395        C396   1.406       .  A
C396        C397   1.398       .  A
C396        H401   1.083       .  S
C397        C398   1.408       .  A
C398        C399   1.516       .  S
C399        F403   1.384   1_556  S
C399        F404   1.382       .  S
C399        F405   1.383       .  S
C402        F406   1.384       .  S
C402        F407   1.383       .  S
C402        F408   1.385       .  S
C409        C414   1.407       .  A
C409       C1922   1.407       .  A
C409        H416   1.083       .  S
C410        C411   1.425       .  A
C410       C1921   1.407   1_455  A
C411        C418   1.520       .  S
C411        C412   1.409       .  A
C412        C413   1.399   1_455  A
C412        H417   1.083       .  S
C413       C1926   1.409       .  A
C414        C415   1.514       .  S
C414       C1925   1.409       .  A
C415        F421   1.383       .  S
C415        F923   1.385       .  S
C415        F924   1.383       .  S
C418        F422   1.383       .  S
C418        F927   1.383       .  S
C418        F928   1.385       .  S
F419        C919   1.385       .  S
F420        C919   1.383       .  S
F423        C922   1.383       .  S
F424        C922   1.385       .  S
C425        C426   1.408       .  A
C425        C430   1.408       .  A
C425        H432   1.083       .  S
C426        C427   1.423       .  A
C427        C434   1.520       .  S
C427        C428   1.408       .  A
C428        C429   1.399       .  A
C428        H433   1.083       .  S
C429        C430   1.409       .  A
C430        C431   1.515       .  S
C431        F435   1.384       .  S
C431        F436   1.383       .  S
C431        F437   1.382       .  S
C434        F438   1.384       .  S
C434        F439   1.382       .  S
C434        F440   1.385       .  S
C441        C442   1.401       .  A
C441        C446   1.410       .  A
C441        H448   1.085       .  S
C442        C443   1.413       .  A
C443        C450   1.521       .  S
C443        C444   1.403       .  A
C444        C445   1.407       .  A
C444        H449   1.074       .  S
C445        C446   1.436       .  A
C446        C447   1.525       .  S
C447        F451   1.383       .  S
C447        F452   1.376   1_545  S
C447        F957   1.384       .  S
C450        F454   1.382       .  S
C450        F455   1.384       .  S
C450        F456   1.385       .  S
F453        C951   1.384       .  S
C457        C458   1.396       .  A
C457        C462   1.409       .  A
C457        H464   1.085       .  S
C458        C459   1.404       .  A
C459        C466   1.520       .  S
C459        C460   1.402       .  A
C460        C461   1.416       .  A
C460        H465   1.076       .  S
C461        C462   1.437       .  A
C462        C463   1.527       .  S
C463        F467   1.384       .  S
C463        F468   1.383       .  S
C463        F973   1.375       .  S
C466        F470   1.383       .  S
C466        F471   1.383       .  S
C466        F472   1.384       .  S
F469        C967   1.375   1_545  S
C473        C474   1.409       .  A
C473        C478   1.410       .  A
C473        H480   1.083       .  S
C474        C475   1.423       .  A
C475        C482   1.521       .  S
C475        C476   1.406       .  A
C476        C477   1.400       .  A
C476        H481   1.083       .  S
C477        C478   1.409       .  A
C478        C479   1.513       .  S
C479        F483   1.384       .  S
C479        F484   1.383       .  S
C479        F485   1.383       .  S
C482        F486   1.383       .  S
C482        F487   1.384       .  S
C482        F488   1.385       .  S
C489        C490   1.411       .  A
C489        C494   1.409       .  A
C489        H496   1.083       .  S
C490        C491   1.424       .  A
C491        C498   1.521       .  S
C491        C492   1.406       .  A
C492        C493   1.400       .  A
C492        H497   1.083       .  S
C493        C494   1.408       .  A
C494        C495   1.514       .  S
C495        F499   1.384       .  S
C495        F500   1.383       .  S
C495        F501   1.383       .  S
C498        F502   1.383       .  S
C498        F503   1.384       .  S
C498        F504   1.385       .  S
O505        C521   1.274       .  A
O505       Zn511   2.020       .  S
C506        O522   1.276       .  A
C506        O519   1.273       .  A
C506        C978   1.487       .  S
O507        C520   1.277       .  A
O507       Cd514   2.091       .  S
O508        C526   1.272       .  A
O508       Cd517   2.055       .  S
O509        C523   1.274       .  A
O509       Cd513   2.075       .  S
O510        C521   1.273       .  A
O510       Cd513   2.062       .  S
Zn511       O522   2.035       .  S
Zn511       O524   2.024       .  S
Zn511       O516   1.945       .  S
O512        C523   1.275       .  A
O512       Cd517   2.075       .  S
Cd513       O515   2.074       .  S
Cd513       O516   1.998       .  S
Cd514       O518   2.077       .  S
Cd514       O527   2.086       .  S
Cd514       O516   2.011       .  S
O515        C525   1.275       .  A
O516       Cd517   1.993       .  S
Cd517       O519   2.067       .  S
O518        C525   1.276       .  A
C520        O524   1.276       .  A
C520        C681   1.476       .  S
C521        C962   1.468       .  S
C523        C930   1.488       .  S
C525        C994   1.491       .  S
C526        O527   1.278       .  A
C526        C946   1.480       .  S
C528       C1538   1.549   1_455  S
C528        C531   1.533       .  S
C528        C965   1.543       .  S
C529       C1543   1.561       .  S
C529        C534   1.542       .  S
C529        C949   1.552       .  S
C530       C1536   1.549       .  S
C530        C538   1.383       .  A
C530        C533   1.407       .  A
C531        C542   1.379       .  A
C531       C1038   1.391   1_465  A
C532        C546   1.378       .  A
C532        C535   1.392       .  A
C533        C536   1.384       .  A
C534       C1035   1.391       .  A
C534        C540   1.380       .  A
C535       C1537   1.561   1_455  S
C535        C543   1.391       .  A
C536        N537   1.354       .  A
C536        H549   1.070       .  S
N537        C538   1.351       .  A
N537        C981   1.437       .  S
C538        H539   1.085       .  S
C540       N1045   1.357       .  A
C540        H550   1.082       .  S
N541       C1044   1.357   1_565  A
N541        C542   1.356   1_655  A
N541        C917   1.435       .  S
C542        H548   1.081       .  S
C543        N544   1.356       .  A
C543        H545   1.079       .  S
N544        C546   1.352       .  A
N544        C997   1.436       .  S
C546        H547   1.083       .  S
O551        C567   1.273       .  A
O551       Zn557   2.011   1_455  S
C552        O568   1.274       .  A
C552        O565   1.273       .  A
C552        C866   1.470       .  S
O553       Cd560   2.095       .  S
O554        C572   1.273       .  A
O555       Cd559   2.070       .  S
O556        C567   1.272       .  A
O556       Cd559   2.045       .  S
Zn557      O1576   2.019       .  S
Zn557       O570   2.025       .  S
Zn557       O562   1.946   1_655  S
O558       C1073   1.276       .  A
O558       Cd563   2.082       .  S
Cd559       O562   1.993       .  S
Cd560       O564   2.081       .  S
Cd560      O1581   2.076   1_455  S
O561        C571   1.272       .  A
O562      Cd1571   1.997   1_455  S
Cd563       O565   2.066       .  S
Cd563      O1570   1.997       .  S
O564        C571   1.276       .  A
C566        O570   1.274   1_554  A
C566       C1620   1.479       .  S
C567        C853   1.469       .  S
O568      Zn1565   2.019       .  S
C569       O1062   1.276   1_455  A
C569        C914   1.489       .  S
C571        C882   1.473       .  S
C572        O573   1.278       .  A
C572        C898   1.493       .  S
O573      Cd1568   2.076       .  S
C574        C576   1.530       .  S
C574        C578   1.522       .  S
C574        C577   1.556       .  S
C574        C869   1.538       .  S
C575        C579   1.549       .  S
C575        C581   1.537       .  S
C575        C580   1.549       .  S
C575        C885   1.548       .  S
C576        C584   1.378       .  A
C576        C579   1.407       .  A
C577        C588   1.382       .  A
C577        C580   1.405       .  A
C578        C592   1.375       .  A
C578        C581   1.385       .  A
C579        C582   1.387       .  A
C580        C586   1.380       .  A
C581        C589   1.381       .  A
C582        N583   1.351       .  A
C582        H595   1.083       .  S
N583        C584   1.346       .  A
N583        C901   1.433       .  S
C584        H585   1.083       .  S
C586        N587   1.356       .  A
C586        H596   1.080       .  S
N587        C588   1.354       .  A
N587        C933   1.434       .  S
C588        H594   1.081       .  S
C589        N590   1.356       .  A
C589        H591   1.083       .  S
N590        C592   1.352       .  A
N590        C850   1.431       .  S
C592        H593   1.082       .  S
O597        C613   1.276       .  A
O597      Zn1611   2.039       .  S
C598        O614   1.275       .  A
C598        O611   1.274       .  A
C598        C834   1.482       .  S
O599        C612   1.279       .  A
O599       Cd606   2.092       .  S
O600        C618   1.273       .  A
O600       Cd609   2.063       .  S
O601       C1623   1.271       .  A
O601       Cd605   2.069       .  S
O602        C613   1.273       .  A
Zn603      O1605   2.039       .  S
Zn603       O614   2.029       .  S
Zn603       O616   2.034       .  S
O604        C615   1.276       .  A
O604       Cd609   2.073       .  S
Cd605       O607   2.058       .  S
Cd605      O1616   1.994   1_455  S
Cd606      O1618   2.096       .  S
Cd606       O619   2.096       .  S
Cd606       O608   2.007       .  S
O607        C617   1.272       .  A
O608      Cd1613   1.994       .  S
O608       Cd609   1.994       .  S
O610        C617   1.278       .  A
O610      Cd1614   2.096   1_455  S
C612       C1574   1.479       .  S
C613        C802   1.490       .  S
C615       O1609   1.271       .  A
C615        C773   1.488       .  S
C617        C786   1.493       .  S
C618        O619   1.279       .  A
C618        C818   1.482       .  S
C620        C622   1.544       .  S
C620        C624   1.564       .  S
C620        C623   1.538       .  S
C620        C805   1.546       .  S
C621        C625   1.527       .  S
C621        C627   1.539       .  S
C621        C626   1.553       .  S
C621        C821   1.542       .  S
C622        C630   1.381       .  A
C622        C625   1.386       .  A
C623        C634   1.377       .  A
C623        C626   1.396       .  A
C624        C638   1.391       .  A
C624        C627   1.406       .  A
C625        C628   1.376       .  A
C626        C632   1.389       .  A
C627        C635   1.377       .  A
C628        N629   1.354       .  A
C628        H641   1.082       .  S
N629        C630   1.356       .  A
N629        C837   1.435       .  S
C630        H631   1.079       .  S
C632        N633   1.361       .  A
C632        H642   1.080       .  S
N633        C634   1.356       .  A
N633        C754   1.441       .  S
C634        H640   1.082       .  S
C635        N636   1.352       .  A
C635        H637   1.083       .  S
N636        C638   1.354       .  A
N636        C789   1.437       .  S
C638        H639   1.076       .  S
C643        C645   1.542       .  S
C643       C1655   1.567       .  S
C643        C646   1.535       .  S
C643        C722   1.550       .  S
C644       C1656   1.528   1_455  S
C644        C649   1.546       .  S
C644        C706   1.550       .  S
C646        C657   1.375       .  A
C646       C1153   1.395       .  A
C647       C1651   1.567       .  S
C647        C661   1.395   1_655  A
C647        C650   1.415   1_655  A
C648       C1652   1.528       .  S
C648        C651   1.377       .  A
C649       C1150   1.395   1_465  A
C649        C655   1.384       .  A
C650        C658   1.382       .  A
C651        N652   1.354       .  A
C651        H664   1.084       .  S
N652        C653   1.355       .  A
N652        C738   1.436       .  S
C655       N1160   1.359   1_565  A
C655        H665   1.079       .  S
N656       C1159   1.359       .  A
N656        C657   1.354       .  A
N656        C770   1.437       .  S
C657        H663   1.082       .  S
C658        N659   1.345       .  A
C658        H660   1.082       .  S
N659        C661   1.351       .  A
N659        C693   1.438       .  S
C661        H662   1.076   1_455  S
O666        C682   1.276       .  A
O666       Zn672   2.033       .  S
C667        O683   1.279       .  A
C667        O680   1.271       .  A
C667        C725   1.480       .  S
O668        C681   1.275       .  A
O668       Cd675   2.067       .  S
O669        C687   1.275       .  A
O669       Cd678   2.055       .  S
O670        C684   1.277       .  A
O670       Cd674   2.099       .  S
O671        C682   1.276       .  A
O671       Cd674   2.074       .  S
Zn672       O683   2.050       .  S
Zn672       O685   2.049       .  S
Zn672       O677   1.952       .  S
O673        C684   1.273       .  A
O673       Cd678   2.070       .  S
Cd674       O676   2.070       .  S
Cd674       O677   1.999       .  S
Cd675       O679   2.061       .  S
Cd675       O688   2.061       .  S
Cd675       O677   2.001       .  S
O676        C686   1.277       .  A
O677       Cd678   1.984       .  S
Cd678       O680   2.046       .  S
O679        C686   1.271       .  A
C681        O685   1.278       .  A
C682        C690   1.479       .  S
C684        C757   1.488       .  S
C686        C709   1.495       .  S
C687        O688   1.269       .  A
C687        C741   1.492       .  S
C689        C690   1.400       .  A
C689        C694   1.405       .  A
C689        H696   1.083       .  S
C690        C691   1.419       .  A
C691        C698   1.518       .  S
C691        C692   1.410       .  A
C692        C693   1.401       .  A
C692        H697   1.083       .  S
C693        C694   1.419       .  A
C694        C695   1.520       .  S
C695        F699   1.384       .  S
C695        F700   1.382       .  S
C695        F701   1.381       .  S
C698        F702   1.384       .  S
C698        F703   1.382       .  S
C698        F704   1.385       .  S
C705        C706   1.416       .  A
C705        C710   1.408       .  A
C705        H712   1.078       .  S
C706        C707   1.429       .  A
C707        C714   1.516       .  S
C707        C708   1.403       .  A
C708        C709   1.403       .  A
C708        H713   1.084       .  S
C709        C710   1.421       .  A
C710        C711   1.525       .  S
C711        F715   1.385       .  S
C711        F716   1.383       .  S
C711        F717   1.383       .  S
C714        F718   1.383       .  S
C714       F1727   1.372   1_455  S
C714        F720   1.384       .  S
F719       C1722   1.372       .  S
C721        C722   1.403       .  A
C721        C726   1.406       .  A
C721        H728   1.076       .  S
C722        C723   1.429       .  A
C723        C730   1.519       .  S
C723        C724   1.406       .  A
C724        C725   1.400       .  A
C724        H729   1.085       .  S
C725        C726   1.419       .  A
C726        C727   1.519       .  S
C727        F731   1.385       .  S
C727        F732   1.383       .  S
C727        F733   1.383       .  S
C730        F734   1.383       .  S
C730        F735   1.373       .  S
C730        F736   1.384       .  S
C737        C738   1.399       .  A
C737        C742   1.411       .  A
C737        H744   1.083       .  S
C738        C739   1.416       .  A
C739        C746   1.515       .  S
C739        C740   1.397       .  A
C740        C741   1.404       .  A
C740        H745   1.083       .  S
C741        C742   1.427       .  A
C742        C743   1.519       .  S
C743        F747   1.385       .  S
C743        F748   1.383       .  S
C743        F749   1.383       .  S
C746        F750   1.379       .  S
C746        F752   1.386       .  S
C753        C754   1.401       .  A
C753        C758   1.408       .  A
C753        H760   1.083       .  S
C754        C755   1.415       .  A
C755        C762   1.516       .  S
C755        C756   1.413       .  A
C756        C757   1.406       .  A
C756        H761   1.083       .  S
C757        C758   1.421       .  A
C758        C759   1.520       .  S
C759        F763   1.385       .  S
C759        F764   1.382       .  S
C759        F765   1.384       .  S
C762        F766   1.382       .  S
C762        F767   1.383       .  S
C762        F768   1.385       .  S
C769        C770   1.400       .  A
C769        C774   1.412       .  A
C769        H776   1.083       .  S
C771        C778   1.514       .  S
C771        C772   1.402   1_565  A
C772        H777   1.083   1_545  S
C773        C774   1.424       .  A
C774        C775   1.518       .  S
C775        F779   1.385       .  S
C775        F780   1.383       .  S
C775       F1789   1.382       .  S
C778        F782   1.379       .  S
C778       F1791   1.378       .  S
C778        F784   1.385       .  S
F781       C1783   1.382       .  S
F783       C1786   1.378       .  S
C785        C786   1.411       .  A
C785        C790   1.411       .  A
C785        H792   1.083       .  S
C786        C787   1.427       .  A
C787        C794   1.522       .  S
C787        C788   1.404       .  A
C788        C789   1.397       .  A
C788        H793   1.083       .  S
C789        C790   1.410       .  A
C790        C791   1.515       .  S
C791        F795   1.384       .  S
C791        F796   1.383       .  S
C791        F797   1.382       .  S
C794        F798   1.383       .  S
C794        F799   1.383       .  S
C794        F800   1.385       .  S
C801        C802   1.406       .  A
C801        C806   1.405       .  A
C801        H808   1.084       .  S
C802        C803   1.420       .  A
C803        C810   1.520       .  S
C803        C804   1.409       .  A
C804        C805   1.405       .  A
C804        H809   1.074       .  S
C805        C806   1.428       .  A
C806        C807   1.525       .  S
C807        F811   1.384       .  S
C807        F812   1.378       .  S
C807        F813   1.384       .  S
C810        F814   1.382       .  S
C810        F815   1.384       .  S
C810        F816   1.385       .  S
C817        C818   1.397       .  A
C817        C822   1.408       .  A
C817        H824   1.085       .  S
C818        C819   1.416       .  A
C819        C826   1.520       .  S
C819        C820   1.409       .  A
C820        C821   1.408       .  A
C820        H825   1.077       .  S
C821        C822   1.437       .  A
C822        C823   1.527       .  S
C823        F827   1.385       .  S
C823        F828   1.377       .  S
C823        F829   1.383       .  S
C826        F830   1.384       .  S
C826        F831   1.382       .  S
C826        F832   1.385       .  S
C833        C834   1.407       .  A
C833        C838   1.409       .  A
C833        H840   1.083       .  S
C834        C835   1.420       .  A
C835        C842   1.520       .  S
C835        C836   1.407       .  A
C836        C837   1.400       .  A
C836        H841   1.083       .  S
C837        C838   1.407       .  A
C838        C839   1.512       .  S
C839        F843   1.384       .  S
C839        F844   1.383       .  S
C839        F845   1.383       .  S
C842        F846   1.382       .  S
C842        F847   1.384       .  S
C842        F848   1.384       .  S
C849        C850   1.401       .  A
C849        C854   1.407       .  A
C849        H856   1.083       .  S
C850        C851   1.414       .  A
C851        C858   1.515       .  S
C851        C852   1.400       .  A
C852        C853   1.400       .  A
C852        H857   1.084       .  S
C853        C854   1.416       .  A
C854        C855   1.518       .  S
C855        F859   1.384   1_556  S
C855        F860   1.384       .  S
C855        F861   1.382       .  S
C858        F862   1.382       .  S
C858        F863   1.377       .  S
C858        F864   1.385       .  S
C865        C866   1.393       .  A
C865        C870   1.405       .  A
C865        H872   1.086       .  S
C866        C867   1.408       .  A
C867        C874   1.519       .  S
C867        C868   1.405       .  A
C868        C869   1.410       .  A
C868        H873   1.072       .  S
C869        C870   1.439       .  A
C870        C871   1.529       .  S
C871        F875   1.385       .  S
C871        F876   1.383       .  S
C871        F877   1.375       .  S
C874        F878   1.383       .  S
C874        F879   1.383       .  S
C874        F880   1.385       .  S
C881        C882   1.396       .  A
C881        C886   1.406       .  A
C881        H888   1.086       .  S
C882        C883   1.407       .  A
C883        C890   1.520       .  S
C883        C884   1.406       .  A
C884        C885   1.420       .  A
C884        H889   1.079       .  S
C885        C886   1.435       .  A
C886        C887   1.520       .  S
C887        F891   1.385       .  S
C887        F892   1.370       .  S
C887        F893   1.383       .  S
C890        F894   1.383       .  S
C890        F895   1.383       .  S
C890        F896   1.384       .  S
C897        C898   1.411       .  A
C897        C902   1.405       .  A
C897        H904   1.082       .  S
C898        C899   1.428       .  A
C899        C906   1.522       .  S
C899        C900   1.406       .  A
C900        C901   1.398       .  A
C900        H905   1.083       .  S
C901        C902   1.408       .  A
C902        C903   1.516       .  S
C903        F907   1.384   1_556  S
C903        F908   1.382       .  S
C903        F909   1.383       .  S
C906        F910   1.384       .  S
C906        F911   1.383       .  S
C906        F912   1.385       .  S
C913       C1418   1.407       .  A
C913        C918   1.407       .  A
C913        H920   1.083       .  S
C914       C1417   1.407   1_455  A
C914        C915   1.425   1_565  A
C915        C922   1.520       .  S
C915        C916   1.410       .  A
C916        C917   1.399   1_445  A
C916        H921   1.083       .  S
C917       C1422   1.409       .  A
C918        C919   1.515       .  S
C918       C1421   1.409       .  A
C919        F925   1.383       .  S
C922        F926   1.383       .  S
C929        C930   1.409       .  A
C929        C934   1.408       .  A
C929        H936   1.083       .  S
C930        C931   1.423       .  A
C931        C938   1.520       .  S
C931        C932   1.408       .  A
C932        C933   1.399       .  A
C932        H937   1.083       .  S
C933        C934   1.409       .  A
C934        C935   1.515       .  S
C935        F939   1.384       .  S
C935        F940   1.383       .  S
C935        F941   1.382       .  S
C938        F942   1.384       .  S
C938        F943   1.382       .  S
C938        F944   1.385       .  S
C945        C946   1.401       .  A
C945        C950   1.410       .  A
C945        H952   1.085       .  S
C946        C947   1.413       .  A
C947        C954   1.521       .  S
C947        C948   1.403       .  A
C948        C949   1.407       .  A
C948        H953   1.074       .  S
C949        C950   1.435       .  A
C950        C951   1.525       .  S
C951        F955   1.383       .  S
C951        F956   1.376       .  S
C954        F958   1.382       .  S
C954        F959   1.384       .  S
C954        F960   1.385       .  S
C961        C962   1.396       .  A
C961        C966   1.409       .  A
C961        H968   1.085       .  S
C962        C963   1.404       .  A
C963        C970   1.520       .  S
C963        C964   1.402       .  A
C964        C965   1.416       .  A
C964        H969   1.076       .  S
C965        C966   1.437       .  A
C966        C967   1.527       .  S
C967        F971   1.384       .  S
C967        F972   1.383       .  S
C970        F974   1.383       .  S
C970        F975   1.383       .  S
C970        F976   1.384       .  S
C977        C978   1.409       .  A
C977        C982   1.410       .  A
C977        H984   1.083       .  S
C978        C979   1.423       .  A
C979        C986   1.521       .  S
C979        C980   1.406       .  A
C980        C981   1.400       .  A
C980        H985   1.083       .  S
C981        C982   1.409       .  A
C982        C983   1.513       .  S
C983        F987   1.384       .  S
C983        F988   1.383       .  S
C983        F989   1.383       .  S
C986        F990   1.383       .  S
C986        F991   1.384       .  S
C986        F992   1.385       .  S
C993        C994   1.411       .  A
C993        C998   1.409       .  A
C993       H1000   1.083       .  S
C994        C995   1.424       .  A
C995       C1002   1.521       .  S
C995        C996   1.406       .  A
C996        C997   1.400       .  A
C996       H1001   1.083       .  S
C997        C998   1.408       .  A
C998        C999   1.514       .  S
C999       F1003   1.384       .  S
C999       F1004   1.383       .  S
C999       F1005   1.383       .  S
C1002      F1006   1.383       .  S
C1002      F1007   1.384       .  S
C1002      F1008   1.385       .  S
O1009      C1025   1.275       .  A
O1009     Zn1015   2.021       .  S
C1010      O1026   1.276       .  A
C1010      O1023   1.273       .  A
C1010      C1482   1.488       .  S
O1011      C1024   1.277       .  A
O1011     Cd1018   2.091       .  S
O1012      C1030   1.272       .  A
O1012     Cd1021   2.056       .  S
O1013      C1027   1.274       .  A
O1013     Cd1017   2.075       .  S
O1014      C1025   1.273       .  A
O1014     Cd1017   2.062       .  S
Zn1015     O1026   2.035       .  S
Zn1015     O1028   2.024       .  S
Zn1015     O1020   1.945       .  S
O1016      C1027   1.275       .  A
O1016     Cd1021   2.074       .  S
Cd1017     O1019   2.074       .  S
Cd1017     O1020   1.999       .  S
Cd1018     O1022   2.077       .  S
Cd1018     O1031   2.086       .  S
Cd1018     O1020   2.011       .  S
O1019      C1029   1.275       .  A
O1020     Cd1021   1.993       .  S
Cd1021     O1023   2.067       .  S
O1022      C1029   1.276       .  A
C1024      O1028   1.276       .  A
C1024      C1185   1.476       .  S
C1025      C1466   1.469       .  S
C1027      C1434   1.488       .  S
C1029      C1498   1.491       .  S
C1030      O1031   1.277       .  A
C1030      C1450   1.480       .  S
C1032      C1540   1.531       .  S
C1032      C1035   1.533       .  S
C1032      C1469   1.544       .  S
C1033      C1541   1.555   1_545  S
C1033      C1038   1.542       .  S
C1033      C1453   1.552       .  S
C1034      C1042   1.383       .  A
C1034      C1037   1.407       .  A
C1035      C1046   1.379       .  A
C1036      C1536   1.531   1_545  S
C1036      C1050   1.378       .  A
C1036      C1039   1.392       .  A
C1037      C1537   1.555       .  S
C1037      C1040   1.384       .  A
C1038      C1044   1.380       .  A
C1039      C1047   1.391       .  A
C1040      N1041   1.354       .  A
C1040      H1053   1.070       .  S
N1041      C1042   1.351       .  A
N1041      C1485   1.437       .  S
C1042      H1043   1.085       .  S
C1044      H1054   1.082       .  S
N1045      C1046   1.356       .  A
N1045      C1421   1.435       .  S
C1046      H1052   1.081       .  S
C1047      N1048   1.356       .  A
C1047      H1049   1.079       .  S
N1048      C1050   1.352       .  A
N1048      C1501   1.436       .  S
C1050      H1051   1.083       .  S
O1055      C1071   1.273       .  A
O1055     Zn1061   2.010       .  S
C1056      O1072   1.274       .  A
C1056      O1069   1.273       .  A
C1056      C1370   1.470       .  S
O1057      C1574   1.278   1_556  A
O1057     Cd1064   2.095       .  S
O1058      C1076   1.273       .  A
O1058     Cd1571   2.064       .  S
O1059      C1577   1.272   1_545  A
O1059     Cd1063   2.070   1_545  S
O1060      C1071   1.272       .  A
O1060     Cd1063   2.045   1_545  S
Zn1061     O1074   2.025       .  S
Zn1061     O1066   1.945       .  S
O1062     Cd1067   2.082   1_565  S
Cd1063     O1569   2.055       .  S
Cd1063     O1066   1.993   1_565  S
Cd1064     O1068   2.082       .  S
Cd1064     O1570   2.004       .  S
O1065      C1075   1.272       .  A
O1065     Cd1567   2.055       .  S
O1066     Cd1568   2.004   1_545  S
Cd1067     O1562   2.064   1_545  S
Cd1067     O1069   2.066       .  S
O1068      C1075   1.276       .  A
C1070      O1561   1.278   1_544  A
C1070      O1074   1.274   1_554  A
C1071      C1357   1.469       .  S
C1073      O1563   1.272       .  A
C1073      C1418   1.489       .  S
C1075      C1386   1.473       .  S
C1076      O1077   1.278       .  A
C1076      C1402   1.493       .  S
C1078      C1080   1.531       .  S
C1078      C1082   1.522       .  S
C1078      C1081   1.556       .  S
C1078      C1373   1.538       .  S
C1079      C1083   1.549       .  S
C1079      C1085   1.537       .  S
C1079      C1084   1.549       .  S
C1079      C1389   1.548       .  S
C1080      C1088   1.378       .  A
C1080      C1083   1.407       .  A
C1081      C1092   1.382       .  A
C1081      C1084   1.405       .  A
C1082      C1096   1.375       .  A
C1082      C1085   1.385       .  A
C1083      C1086   1.387       .  A
C1084      C1090   1.380       .  A
C1085      C1093   1.381       .  A
C1086      N1087   1.351       .  A
C1086      H1099   1.083       .  S
N1087      C1088   1.347       .  A
N1087      C1405   1.433       .  S
C1088      H1089   1.083       .  S
C1090      N1091   1.356       .  A
C1090      H1100   1.080       .  S
N1091      C1092   1.354       .  A
N1091      C1437   1.434       .  S
C1092      H1098   1.081       .  S
C1093      N1094   1.356       .  A
C1093      H1095   1.083       .  S
N1094      C1096   1.352       .  A
N1094      C1354   1.430       .  S
C1096      H1097   1.082       .  S
O1101      C1117   1.276       .  A
C1102      O1118   1.275       .  A
C1102      O1115   1.274       .  A
C1102      C1338   1.482       .  S
O1103      C1116   1.279       .  A
O1103     Cd1110   2.092       .  S
O1104      C1122   1.273       .  A
O1104     Cd1113   2.063       .  S
O1105     Cd1109   2.069       .  S
O1106      C1117   1.273       .  A
O1106     Cd1613   2.053       .  S
Zn1107     O1118   2.029   1_455  S
Zn1107     O1120   2.034       .  S
Zn1107     O1616   1.953   1_455  S
O1108      C1119   1.276   1_655  A
O1108     Cd1113   2.073       .  S
Cd1109     O1610   2.054   1_545  S
Cd1109     O1111   2.058       .  S
Cd1110     O1123   2.096       .  S
Cd1110     O1112   2.007       .  S
O1111      C1121   1.272       .  A
O1112     Zn1611   1.953   1_645  S
O1112     Cd1113   1.993       .  S
Cd1113     O1619   2.071   1_545  S
O1114      C1121   1.278       .  A
O1115     Cd1617   2.072       .  S
C1116      O1624   1.277   1_645  A
C1117      C1306   1.490       .  S
C1119      C1277   1.488       .  S
O1120      C1620   1.277   1_455  A
C1121      C1290   1.493       .  S
C1122      O1123   1.279       .  A
C1122      C1322   1.482       .  S
C1124      C1126   1.544       .  S
C1124      C1128   1.564       .  S
C1124      C1127   1.538       .  S
C1124      C1309   1.546       .  S
C1125      C1129   1.527       .  S
C1125      C1131   1.539       .  S
C1125      C1130   1.553       .  S
C1125      C1325   1.542       .  S
C1126      C1134   1.382       .  A
C1126      C1129   1.386       .  A
C1127      C1138   1.377       .  A
C1127      C1130   1.396       .  A
C1128      C1142   1.391       .  A
C1128      C1131   1.406       .  A
C1129      C1132   1.377       .  A
C1130      C1136   1.389       .  A
C1131      C1139   1.378       .  A
C1132      N1133   1.355       .  A
C1132      H1145   1.082       .  S
N1133      C1134   1.356       .  A
N1133      C1341   1.435       .  S
C1134      H1135   1.079       .  S
C1136      N1137   1.361       .  A
C1136      H1146   1.080       .  S
N1137      C1138   1.356       .  A
N1137      C1258   1.441       .  S
C1138      H1144   1.082       .  S
C1139      N1140   1.352       .  A
C1139      H1141   1.083       .  S
N1140      C1142   1.354       .  A
N1140      C1293   1.437       .  S
C1142      H1143   1.076       .  S
C1147      C1149   1.542       .  S
C1147      C1150   1.535       .  S
C1147      C1226   1.550       .  S
C1148      C1658   1.547       .  S
C1148      C1153   1.546       .  S
C1148      C1210   1.550       .  S
C1149      C1661   1.381   1_545  A
C1149      C1656   1.388   1_545  A
C1150      C1161   1.375       .  A
C1151      C1165   1.395       .  A
C1151      C1154   1.415       .  A
C1152      C1653   1.388       .  A
C1152      C1155   1.377       .  A
C1153      C1159   1.384       .  A
C1154      C1652   1.547   1_545  S
C1154      C1162   1.382       .  A
C1155      N1156   1.354       .  A
C1155      H1168   1.084       .  S
N1156      C1157   1.355       .  A
N1156      C1242   1.436       .  S
C1157      C1653   1.381       .  A
C1157      H1662   1.072       .  S
H1158      C1661   1.072   1_545  S
C1159      H1169   1.079       .  S
N1160      C1161   1.354   1_455  A
N1160      C1274   1.437       .  S
C1161      H1167   1.082       .  S
C1162      N1163   1.345       .  A
C1162      H1164   1.082       .  S
N1163      C1165   1.351       .  A
N1163      C1197   1.438       .  S
C1165      H1166   1.076       .  S
O1170      C1186   1.276       .  A
O1170     Zn1176   2.033       .  S
C1171      O1187   1.279       .  A
C1171      O1184   1.271       .  A
C1171      C1229   1.480       .  S
O1172      C1185   1.275       .  A
O1172     Cd1179   2.067       .  S
O1173      C1191   1.275       .  A
O1173     Cd1182   2.055       .  S
O1174      C1188   1.277       .  A
O1174     Cd1178   2.099       .  S
O1175      C1186   1.276       .  A
O1175     Cd1178   2.073       .  S
Zn1176     O1187   2.050       .  S
Zn1176     O1189   2.049       .  S
Zn1176     O1181   1.952       .  S
O1177      C1188   1.273       .  A
O1177     Cd1182   2.070       .  S
Cd1178     O1180   2.070       .  S
Cd1178     O1181   1.999       .  S
Cd1179     O1183   2.060       .  S
Cd1179     O1192   2.061       .  S
Cd1179     O1181   2.000       .  S
O1180      C1190   1.277       .  A
O1181     Cd1182   1.984       .  S
Cd1182     O1184   2.045       .  S
O1183      C1190   1.271       .  A
C1185      O1189   1.278       .  A
C1186      C1194   1.478       .  S
C1188      C1261   1.488       .  S
C1190      C1213   1.495       .  S
C1191      O1192   1.269       .  A
C1191      C1245   1.492       .  S
C1193      C1194   1.400       .  A
C1193      C1198   1.405       .  A
C1193      H1200   1.083       .  S
C1194      C1195   1.419       .  A
C1195      C1202   1.518       .  S
C1195      C1196   1.410       .  A
C1196      C1197   1.401       .  A
C1196      H1201   1.083       .  S
C1197      C1198   1.419       .  A
C1198      C1199   1.520       .  S
C1199      F1203   1.384       .  S
C1199      F1204   1.382       .  S
C1199      F1205   1.381       .  S
C1202      F1206   1.384       .  S
C1202      F1207   1.382       .  S
C1202      F1208   1.385       .  S
C1209      C1210   1.416       .  A
C1209      C1214   1.408       .  A
C1209      H1216   1.078       .  S
C1210      C1211   1.429       .  A
C1211      C1218   1.516       .  S
C1211      C1212   1.403       .  A
C1212      C1213   1.403       .  A
C1212      H1217   1.084       .  S
C1213      C1214   1.421       .  A
C1214      C1215   1.525       .  S
C1215      F1219   1.385       .  S
C1215      F1220   1.383       .  S
C1215      F1221   1.383       .  S
C1218      F1222   1.383       .  S
C1218      F1224   1.384       .  S
C1225      C1226   1.403       .  A
C1225      C1230   1.406       .  A
C1225      H1232   1.076       .  S
C1226      C1227   1.429       .  A
C1227      C1234   1.519       .  S
C1227      C1228   1.406       .  A
C1228      C1229   1.400       .  A
C1228      H1233   1.085       .  S
C1229      C1230   1.419       .  A
C1230      C1231   1.519       .  S
C1231      F1235   1.385       .  S
C1231      F1236   1.383       .  S
C1231      F1237   1.383       .  S
C1234      F1238   1.383       .  S
C1234      F1239   1.373       .  S
C1234      F1240   1.384       .  S
C1241      C1242   1.399       .  A
C1241      C1246   1.411       .  A
C1241      H1248   1.083       .  S
C1242      C1243   1.416       .  A
C1243      C1250   1.515       .  S
C1243      C1244   1.397       .  A
C1244      C1245   1.404       .  A
C1244      H1249   1.083       .  S
C1245      C1246   1.427       .  A
C1246      C1247   1.519       .  S
C1247      F1251   1.385       .  S
C1247      F1252   1.383       .  S
C1247      F1253   1.383       .  S
C1250      F1254   1.379       .  S
C1250      F1759   1.376       .  S
C1250      F1256   1.386       .  S
F1255      C1754   1.377       .  S
C1257      C1258   1.401       .  A
C1257      C1262   1.408       .  A
C1257      H1264   1.083       .  S
C1258      C1259   1.415       .  A
C1259      C1266   1.516       .  S
C1259      C1260   1.413       .  A
C1260      C1261   1.406       .  A
C1260      H1265   1.083       .  S
C1261      C1262   1.421       .  A
C1262      C1263   1.520       .  S
C1263      F1267   1.385       .  S
C1263      F1268   1.382       .  S
C1263      F1269   1.384       .  S
C1266      F1270   1.382       .  S
C1266      F1271   1.383       .  S
C1266      F1272   1.385       .  S
C1273      C1274   1.400       .  A
C1273      C1278   1.412       .  A
C1273      H1280   1.083       .  S
C1274      C1779   1.414   1_445  A
C1275      C1282   1.514       .  S
C1275      C1778   1.414   1_655  A
C1275      C1276   1.402       .  A
C1276      C1781   1.403   1_655  A
C1276      H1281   1.083       .  S
C1277      C1780   1.403   1_455  A
C1277      C1278   1.424       .  A
C1278      C1279   1.518       .  S
C1279      F1283   1.385       .  S
C1279      F1284   1.383       .  S
C1282      F1286   1.379       .  S
C1282      F1288   1.385       .  S
C1289      C1290   1.411       .  A
C1289      C1294   1.411       .  A
C1289      H1296   1.083       .  S
C1290      C1291   1.427       .  A
C1291      C1298   1.522       .  S
C1291      C1292   1.404       .  A
C1292      C1293   1.397       .  A
C1292      H1297   1.083       .  S
C1293      C1294   1.410       .  A
C1294      C1295   1.515       .  S
C1295      F1299   1.384       .  S
C1295      F1300   1.383       .  S
C1295      F1301   1.382       .  S
C1298      F1302   1.383       .  S
C1298      F1303   1.383       .  S
C1298      F1304   1.385       .  S
C1305      C1306   1.406       .  A
C1305      C1310   1.405       .  A
C1305      H1312   1.084       .  S
C1306      C1307   1.420       .  A
C1307      C1314   1.520       .  S
C1307      C1308   1.409       .  A
C1308      C1309   1.405       .  A
C1308      H1313   1.074       .  S
C1309      C1310   1.428       .  A
C1310      C1311   1.525       .  S
C1311      F1315   1.384       .  S
C1311      F1316   1.378       .  S
C1311      F1317   1.383       .  S
C1314      F1318   1.382       .  S
C1314      F1319   1.384       .  S
C1314      F1320   1.385       .  S
C1321      C1322   1.397       .  A
C1321      C1326   1.408       .  A
C1321      H1328   1.085       .  S
C1322      C1323   1.416       .  A
C1323      C1330   1.520       .  S
C1323      C1324   1.409       .  A
C1324      C1325   1.408       .  A
C1324      H1329   1.077       .  S
C1325      C1326   1.437       .  A
C1326      C1327   1.527       .  S
C1327      F1331   1.385       .  S
C1327      F1332   1.377       .  S
C1327      F1333   1.383       .  S
C1330      F1334   1.384       .  S
C1330      F1335   1.382       .  S
C1330      F1336   1.385       .  S
C1337      C1338   1.407       .  A
C1337      C1342   1.409       .  A
C1337      H1344   1.083       .  S
C1338      C1339   1.420       .  A
C1339      C1346   1.520       .  S
C1339      C1340   1.407       .  A
C1340      C1341   1.400       .  A
C1340      H1345   1.083       .  S
C1341      C1342   1.407       .  A
C1342      C1343   1.512       .  S
C1343      F1347   1.384       .  S
C1343      F1348   1.383       .  S
C1343      F1349   1.383       .  S
C1346      F1350   1.382       .  S
C1346      F1351   1.384       .  S
C1346      F1352   1.385       .  S
C1353      C1354   1.401       .  A
C1353      C1358   1.407       .  A
C1353      H1360   1.083       .  S
C1354      C1355   1.414       .  A
C1355      C1362   1.515       .  S
C1355      C1356   1.399       .  A
C1356      C1357   1.400       .  A
C1356      H1361   1.084       .  S
C1357      C1358   1.416       .  A
C1358      C1359   1.518       .  S
C1359      F1363   1.384   1_556  S
C1359      F1364   1.384       .  S
C1359      F1365   1.382       .  S
C1362      F1366   1.382       .  S
C1362      F1367   1.377       .  S
C1362      F1368   1.385       .  S
C1369      C1370   1.393       .  A
C1369      C1374   1.405       .  A
C1369      H1376   1.086       .  S
C1370      C1371   1.408       .  A
C1371      C1378   1.519       .  S
C1371      C1372   1.405       .  A
C1372      C1373   1.410       .  A
C1372      H1377   1.072       .  S
C1373      C1374   1.439       .  A
C1374      C1375   1.529       .  S
C1375      F1379   1.385       .  S
C1375      F1380   1.383       .  S
C1375      F1381   1.375       .  S
C1378      F1382   1.383       .  S
C1378      F1383   1.383       .  S
C1378      F1384   1.385       .  S
C1385      C1386   1.396       .  A
C1385      C1390   1.406       .  A
C1385      H1392   1.086       .  S
C1386      C1387   1.407       .  A
C1387      C1394   1.520       .  S
C1387      C1388   1.406       .  A
C1388      C1389   1.420       .  A
C1388      H1393   1.079       .  S
C1389      C1390   1.435       .  A
C1390      C1391   1.520       .  S
C1391      F1395   1.385       .  S
C1391      F1396   1.370       .  S
C1391      F1397   1.383       .  S
C1394      F1398   1.383       .  S
C1394      F1399   1.383       .  S
C1394      F1400   1.384       .  S
C1401      C1402   1.411       .  A
C1401      C1406   1.405       .  A
C1401      H1408   1.082       .  S
C1402      C1403   1.428       .  A
C1403      C1410   1.522       .  S
C1403      C1404   1.406       .  A
C1404      C1405   1.398       .  A
C1404      H1409   1.083       .  S
C1405      C1406   1.408       .  A
C1406      C1407   1.516       .  S
C1407      F1411   1.384   1_556  S
C1407      F1412   1.382       .  S
C1407      F1413   1.383       .  S
C1410      F1414   1.384       .  S
C1410      F1415   1.383       .  S
C1410      F1416   1.385       .  S
C1417      C1422   1.407       .  A
C1417      H1424   1.083       .  S
C1418      C1419   1.425       .  A
C1419      C1426   1.520       .  S
C1419      C1420   1.409       .  A
C1420      C1421   1.399       .  A
C1420      H1425   1.083       .  S
C1422      C1423   1.515       .  S
C1423      F1931   1.385       .  S
C1423      F1932   1.383       .  S
C1423      F1429   1.383       .  S
C1426      F1430   1.383       .  S
C1426      F1935   1.383       .  S
C1426      F1936   1.385       .  S
F1427      C1927   1.385       .  S
F1428      C1927   1.383       .  S
F1431      C1930   1.383       .  S
F1432      C1930   1.385       .  S
C1433      C1434   1.409       .  A
C1433      C1438   1.408       .  A
C1433      H1440   1.083       .  S
C1434      C1435   1.423       .  A
C1435      C1442   1.520       .  S
C1435      C1436   1.408       .  A
C1436      C1437   1.399       .  A
C1436      H1441   1.083       .  S
C1437      C1438   1.409       .  A
C1438      C1439   1.515       .  S
C1439      F1443   1.384       .  S
C1439      F1444   1.383       .  S
C1439      F1445   1.382       .  S
C1442      F1446   1.384       .  S
C1442      F1447   1.382       .  S
C1442      F1448   1.385       .  S
C1449      C1450   1.401       .  A
C1449      C1454   1.410       .  A
C1449      H1456   1.085       .  S
C1450      C1451   1.413       .  A
C1451      C1458   1.521       .  S
C1451      C1452   1.403       .  A
C1452      C1453   1.407       .  A
C1452      H1457   1.074       .  S
C1453      C1454   1.435       .  A
C1454      C1455   1.525       .  S
C1455      F1459   1.383       .  S
C1455      F1460   1.376   1_545  S
C1455      F1965   1.384       .  S
C1458      F1462   1.382       .  S
C1458      F1463   1.384       .  S
C1458      F1464   1.385       .  S
F1461      C1959   1.384       .  S
C1465      C1466   1.396       .  A
C1465      C1470   1.409       .  A
C1465      H1472   1.085       .  S
C1466      C1467   1.404       .  A
C1467      C1474   1.520       .  S
C1467      C1468   1.402       .  A
C1468      C1469   1.416       .  A
C1468      H1473   1.076       .  S
C1469      C1470   1.437       .  A
C1470      C1471   1.527       .  S
C1471      F1475   1.384       .  S
C1471      F1476   1.383       .  S
C1471      F1981   1.375       .  S
C1474      F1478   1.383       .  S
C1474      F1479   1.383       .  S
C1474      F1480   1.384       .  S
F1477      C1975   1.375   1_545  S
C1481      C1482   1.409       .  A
C1481      C1486   1.410       .  A
C1481      H1488   1.083       .  S
C1482      C1483   1.423       .  A
C1483      C1490   1.521       .  S
C1483      C1484   1.406       .  A
C1484      C1485   1.400       .  A
C1484      H1489   1.083       .  S
C1485      C1486   1.409       .  A
C1486      C1487   1.513       .  S
C1487      F1491   1.384       .  S
C1487      F1492   1.383       .  S
C1487      F1493   1.383       .  S
C1490      F1494   1.383       .  S
C1490      F1495   1.384       .  S
C1490      F1496   1.385       .  S
C1497      C1498   1.411       .  A
C1497      C1502   1.409       .  A
C1497      H1504   1.083       .  S
C1498      C1499   1.424       .  A
C1499      C1506   1.521       .  S
C1499      C1500   1.406       .  A
C1500      C1501   1.400       .  A
C1500      H1505   1.083       .  S
C1501      C1502   1.408       .  A
C1502      C1503   1.514       .  S
C1503      F1507   1.384       .  S
C1503      F1508   1.383       .  S
C1503      F1509   1.383       .  S
C1506      F1510   1.383       .  S
C1506      F1511   1.384       .  S
C1506      F1512   1.385       .  S
O1513      C1529   1.274       .  A
O1513     Zn1519   2.020       .  S
C1514      O1530   1.276       .  A
C1514      O1527   1.273       .  A
C1514      C1986   1.487       .  S
O1515      C1528   1.277       .  A
O1515     Cd1522   2.091       .  S
O1516      C1534   1.272       .  A
O1516     Cd1525   2.055       .  S
O1517      C1531   1.274       .  A
O1517     Cd1521   2.075       .  S
O1518      C1529   1.273       .  A
O1518     Cd1521   2.062       .  S
Zn1519     O1530   2.035       .  S
Zn1519     O1532   2.024       .  S
Zn1519     O1524   1.944       .  S
O1520      C1531   1.275       .  A
O1520     Cd1525   2.074       .  S
Cd1521     O1523   2.074       .  S
Cd1521     O1524   1.998       .  S
Cd1522     O1526   2.077       .  S
Cd1522     O1535   2.086       .  S
Cd1522     O1524   2.011       .  S
O1523      C1533   1.275       .  A
O1524     Cd1525   1.993       .  S
Cd1525     O1527   2.067       .  S
O1526      C1533   1.276       .  A
C1528      O1532   1.276       .  A
C1528      C1689   1.476       .  S
C1529      C1970   1.468       .  S
C1531      C1938   1.487       .  S
C1533      C2002   1.491       .  S
C1534      O1535   1.278       .  A
C1534      C1954   1.480       .  S
C1536      C1539   1.533       .  S
C1536      C1973   1.543       .  S
C1537      C1542   1.542       .  S
C1537      C1957   1.552       .  S
C1538      C1546   1.383       .  A
C1538      C1541   1.407       .  A
C1539      C1550   1.379       .  A
C1540      C1554   1.378       .  A
C1540      C1543   1.392       .  A
C1541      C1544   1.384       .  A
C1542      C1548   1.380       .  A
C1543      C1551   1.391       .  A
C1544      N1545   1.354       .  A
C1544      H1557   1.071       .  S
N1545      C1546   1.351       .  A
N1545      C1989   1.437       .  S
C1546      H1547   1.085       .  S
C1548      H1558   1.082       .  S
N1549      C1550   1.356       .  A
N1549      C1925   1.435       .  S
C1550      H1556   1.081       .  S
C1551      N1552   1.356       .  A
C1551      H1553   1.079       .  S
N1552      C1554   1.352       .  A
N1552      C2005   1.436       .  S
C1554      H1555   1.083       .  S
O1559      C1575   1.273       .  A
O1559     Zn1565   2.011       .  S
C1560      O1576   1.274       .  A
C1560      O1573   1.273       .  A
C1560      C1874   1.470       .  S
O1561     Cd1568   2.095       .  S
O1562      C1580   1.273       .  A
O1563     Cd1567   2.070       .  S
O1564      C1575   1.272       .  A
O1564     Cd1567   2.045       .  S
Zn1565     O1578   2.026       .  S
Zn1565     O1570   1.946       .  S
O1566     Cd1571   2.082       .  S
Cd1567     O1570   1.993       .  S
Cd1568     O1572   2.081       .  S
O1569      C1579   1.272       .  A
Cd1571     O1573   2.066       .  S
O1572      C1579   1.276       .  A
C1574      O1578   1.274   1_554  A
C1575      C1861   1.469       .  S
C1577      C1922   1.489       .  S
C1579      C1890   1.473       .  S
C1580      O1581   1.278       .  A
C1580      C1906   1.493       .  S
C1582      C1584   1.530       .  S
C1582      C1586   1.522       .  S
C1582      C1585   1.556       .  S
C1582      C1877   1.538       .  S
C1583      C1587   1.549       .  S
C1583      C1589   1.537       .  S
C1583      C1588   1.549       .  S
C1583      C1893   1.548       .  S
C1584      C1592   1.378       .  A
C1584      C1587   1.407       .  A
C1585      C1596   1.382       .  A
C1585      C1588   1.405       .  A
C1586      C1600   1.375       .  A
C1586      C1589   1.385       .  A
C1587      C1590   1.387       .  A
C1588      C1594   1.380       .  A
C1589      C1597   1.381       .  A
C1590      N1591   1.351       .  A
C1590      H1603   1.083       .  S
N1591      C1592   1.346       .  A
N1591      C1909   1.433       .  S
C1592      H1593   1.083       .  S
C1594      N1595   1.356       .  A
C1594      H1604   1.080       .  S
N1595      C1596   1.354       .  A
N1595      C1941   1.434       .  S
C1596      H1602   1.081       .  S
C1597      N1598   1.356       .  A
C1597      H1599   1.083       .  S
N1598      C1600   1.352       .  A
N1598      C1858   1.430       .  S
C1600      H1601   1.082       .  S
O1605      C1621   1.276       .  A
C1606      O1622   1.275       .  A
C1606      O1619   1.274       .  A
C1606      C1842   1.482       .  S
O1607      C1620   1.279       .  A
O1607     Cd1614   2.092       .  S
O1608      C1626   1.273       .  A
O1608     Cd1617   2.063       .  S
O1609     Cd1613   2.069       .  S
O1610      C1621   1.273       .  A
Zn1611     O1622   2.029   1_455  S
Zn1611     O1624   2.034       .  S
O1612      C1623   1.276   1_655  A
O1612     Cd1617   2.073       .  S
Cd1613     O1615   2.058       .  S
Cd1614     O1627   2.096       .  S
Cd1614     O1616   2.007       .  S
O1615      C1625   1.272       .  A
O1616     Cd1617   1.994       .  S
O1618      C1625   1.278       .  A
C1621      C1810   1.490       .  S
C1623      C1781   1.488       .  S
C1625      C1794   1.493       .  S
C1626      O1627   1.279       .  A
C1626      C1826   1.482       .  S
C1628      C1630   1.544       .  S
C1628      C1632   1.564       .  S
C1628      C1631   1.538       .  S
C1628      C1813   1.546       .  S
C1629      C1633   1.527       .  S
C1629      C1635   1.539       .  S
C1629      C1634   1.553       .  S
C1629      C1829   1.542       .  S
C1630      C1638   1.381       .  A
C1630      C1633   1.386       .  A
C1631      C1642   1.377       .  A
C1631      C1634   1.396       .  A
C1632      C1646   1.391       .  A
C1632      C1635   1.406       .  A
C1633      C1636   1.376       .  A
C1634      C1640   1.389       .  A
C1635      C1643   1.377       .  A
C1636      N1637   1.354       .  A
C1636      H1649   1.082       .  S
N1637      C1638   1.356       .  A
N1637      C1845   1.435       .  S
C1638      H1639   1.079       .  S
C1640      N1641   1.361       .  A
C1640      H1650   1.080       .  S
N1641      C1642   1.356       .  A
N1641      C1762   1.441       .  S
C1642      H1648   1.082       .  S
C1643      N1644   1.352       .  A
C1643      H1645   1.083       .  S
N1644      C1646   1.354       .  A
N1644      C1797   1.437       .  S
C1646      H1647   1.076       .  S
C1651      C1653   1.542       .  S
C1651      C1654   1.535       .  S
C1651      C1730   1.550       .  S
C1652      C1657   1.546       .  S
C1652      C1714   1.550       .  S
C1654      C1665   1.375       .  A
C1655      C1669   1.395       .  A
C1655      C1658   1.415       .  A
C1656      C1659   1.377       .  A
C1657      C1663   1.384       .  A
C1658      C1666   1.382       .  A
C1659      N1660   1.354       .  A
C1659      H1672   1.084       .  S
N1660      C1661   1.355       .  A
N1660      C1746   1.436       .  S
C1663      H1673   1.079       .  S
N1664      C1665   1.354   1_455  A
N1664      C1778   1.437       .  S
C1665      H1671   1.082       .  S
C1666      N1667   1.345       .  A
C1666      H1668   1.082       .  S
N1667      C1669   1.351       .  A
N1667      C1701   1.438       .  S
C1669      H1670   1.076       .  S
O1674      C1690   1.276       .  A
O1674     Zn1680   2.033       .  S
C1675      O1691   1.279       .  A
C1675      O1688   1.271       .  A
C1675      C1733   1.480       .  S
O1676      C1689   1.275       .  A
O1676     Cd1683   2.067       .  S
O1677      C1695   1.275       .  A
O1677     Cd1686   2.054       .  S
O1678      C1692   1.277       .  A
O1678     Cd1682   2.099       .  S
O1679      C1690   1.276       .  A
O1679     Cd1682   2.074       .  S
Zn1680     O1691   2.050       .  S
Zn1680     O1693   2.049       .  S
Zn1680     O1685   1.952       .  S
O1681      C1692   1.273       .  A
O1681     Cd1686   2.070       .  S
Cd1682     O1684   2.070       .  S
Cd1682     O1685   2.000       .  S
Cd1683     O1687   2.061       .  S
Cd1683     O1696   2.061       .  S
Cd1683     O1685   2.001       .  S
O1684      C1694   1.277       .  A
O1685     Cd1686   1.984       .  S
Cd1686     O1688   2.045       .  S
O1687      C1694   1.272       .  A
C1689      O1693   1.277       .  A
C1690      C1698   1.479       .  S
C1692      C1765   1.488       .  S
C1694      C1717   1.495       .  S
C1695      O1696   1.269       .  A
C1695      C1749   1.492       .  S
C1697      C1698   1.400       .  A
C1697      C1702   1.405       .  A
C1697      H1704   1.083       .  S
C1698      C1699   1.419       .  A
C1699      C1706   1.518       .  S
C1699      C1700   1.410       .  A
C1700      C1701   1.401       .  A
C1700      H1705   1.083       .  S
C1701      C1702   1.419       .  A
C1702      C1703   1.520       .  S
C1703      F1707   1.384       .  S
C1703      F1708   1.382       .  S
C1703      F1709   1.381       .  S
C1706      F1710   1.383       .  S
C1706      F1711   1.382       .  S
C1706      F1712   1.385       .  S
C1713      C1714   1.416       .  A
C1713      C1718   1.408       .  A
C1713      H1720   1.078       .  S
C1714      C1715   1.429       .  A
C1715      C1722   1.516       .  S
C1715      C1716   1.403       .  A
C1716      C1717   1.403       .  A
C1716      H1721   1.084       .  S
C1717      C1718   1.421       .  A
C1718      C1719   1.524       .  S
C1719      F1723   1.385       .  S
C1719      F1724   1.383       .  S
C1719      F1725   1.383       .  S
C1722      F1726   1.383       .  S
C1722      F1728   1.384       .  S
C1729      C1730   1.403       .  A
C1729      C1734   1.406       .  A
C1729      H1736   1.076       .  S
C1730      C1731   1.429       .  A
C1731      C1738   1.519       .  S
C1731      C1732   1.405       .  A
C1732      C1733   1.400       .  A
C1732      H1737   1.085       .  S
C1733      C1734   1.419       .  A
C1734      C1735   1.519       .  S
C1735      F1739   1.385       .  S
C1735      F1740   1.383       .  S
C1735      F1741   1.383       .  S
C1738      F1742   1.383       .  S
C1738      F1743   1.373       .  S
C1738      F1744   1.384       .  S
C1745      C1746   1.399       .  A
C1745      C1750   1.411       .  A
C1745      H1752   1.083       .  S
C1746      C1747   1.416       .  A
C1747      C1754   1.515       .  S
C1747      C1748   1.397       .  A
C1748      C1749   1.404       .  A
C1748      H1753   1.083       .  S
C1749      C1750   1.427       .  A
C1750      C1751   1.519       .  S
C1751      F1755   1.385       .  S
C1751      F1756   1.383       .  S
C1751      F1757   1.383       .  S
C1754      F1758   1.380       .  S
C1754      F1760   1.386       .  S
C1761      C1762   1.401       .  A
C1761      C1766   1.408       .  A
C1761      H1768   1.083       .  S
C1762      C1763   1.415       .  A
C1763      C1770   1.516       .  S
C1763      C1764   1.413       .  A
C1764      C1765   1.406       .  A
C1764      H1769   1.083       .  S
C1765      C1766   1.421       .  A
C1766      C1767   1.520       .  S
C1767      F1771   1.385       .  S
C1767      F1772   1.382       .  S
C1767      F1773   1.384       .  S
C1770      F1774   1.382       .  S
C1770      F1775   1.383       .  S
C1770      F1776   1.385       .  S
C1777      C1778   1.400       .  A
C1777      C1782   1.412       .  A
C1777      H1784   1.083       .  S
C1779      C1786   1.514       .  S
C1779      C1780   1.402   1_565  A
C1780      H1785   1.083   1_545  S
C1781      C1782   1.424       .  A
C1782      C1783   1.518       .  S
C1783      F1787   1.385       .  S
C1783      F1788   1.383       .  S
C1786      F1790   1.379       .  S
C1786      F1792   1.385       .  S
C1793      C1794   1.411       .  A
C1793      C1798   1.411       .  A
C1793      H1800   1.083       .  S
C1794      C1795   1.427       .  A
C1795      C1802   1.522       .  S
C1795      C1796   1.404       .  A
C1796      C1797   1.397       .  A
C1796      H1801   1.083       .  S
C1797      C1798   1.410       .  A
C1798      C1799   1.515       .  S
C1799      F1803   1.384       .  S
C1799      F1804   1.383       .  S
C1799      F1805   1.382       .  S
C1802      F1806   1.383       .  S
C1802      F1807   1.383       .  S
C1802      F1808   1.385       .  S
C1809      C1810   1.406       .  A
C1809      C1814   1.405       .  A
C1809      H1816   1.084       .  S
C1810      C1811   1.420       .  A
C1811      C1818   1.520       .  S
C1811      C1812   1.409       .  A
C1812      C1813   1.405       .  A
C1812      H1817   1.074       .  S
C1813      C1814   1.428       .  A
C1814      C1815   1.525       .  S
C1815      F1819   1.384       .  S
C1815      F1820   1.378       .  S
C1815      F1821   1.384       .  S
C1818      F1822   1.382       .  S
C1818      F1823   1.384       .  S
C1818      F1824   1.385       .  S
C1825      C1826   1.397       .  A
C1825      C1830   1.408       .  A
C1825      H1832   1.085       .  S
C1826      C1827   1.416       .  A
C1827      C1834   1.520       .  S
C1827      C1828   1.409       .  A
C1828      C1829   1.408       .  A
C1828      H1833   1.077       .  S
C1829      C1830   1.437       .  A
C1830      C1831   1.527       .  S
C1831      F1835   1.385       .  S
C1831      F1836   1.377       .  S
C1831      F1837   1.383       .  S
C1834      F1838   1.384       .  S
C1834      F1839   1.382       .  S
C1834      F1840   1.385       .  S
C1841      C1842   1.407       .  A
C1841      C1846   1.409       .  A
C1841      H1848   1.083       .  S
C1842      C1843   1.420       .  A
C1843      C1850   1.520       .  S
C1843      C1844   1.407       .  A
C1844      C1845   1.400       .  A
C1844      H1849   1.083       .  S
C1845      C1846   1.407       .  A
C1846      C1847   1.512       .  S
C1847      F1851   1.384       .  S
C1847      F1852   1.383       .  S
C1847      F1853   1.383       .  S
C1850      F1854   1.382       .  S
C1850      F1855   1.384       .  S
C1850      F1856   1.385       .  S
C1857      C1858   1.401       .  A
C1857      C1862   1.407       .  A
C1857      H1864   1.083       .  S
C1858      C1859   1.414       .  A
C1859      C1866   1.515       .  S
C1859      C1860   1.400       .  A
C1860      C1861   1.400       .  A
C1860      H1865   1.084       .  S
C1861      C1862   1.416       .  A
C1862      C1863   1.518       .  S
C1863      F1867   1.384   1_556  S
C1863      F1868   1.384       .  S
C1863      F1869   1.382       .  S
C1866      F1870   1.382       .  S
C1866      F1871   1.377       .  S
C1866      F1872   1.385       .  S
C1873      C1874   1.393       .  A
C1873      C1878   1.405       .  A
C1873      H1880   1.086       .  S
C1874      C1875   1.408       .  A
C1875      C1882   1.519       .  S
C1875      C1876   1.405       .  A
C1876      C1877   1.410       .  A
C1876      H1881   1.072       .  S
C1877      C1878   1.439       .  A
C1878      C1879   1.529       .  S
C1879      F1883   1.385       .  S
C1879      F1884   1.383       .  S
C1879      F1885   1.375       .  S
C1882      F1886   1.383       .  S
C1882      F1887   1.383       .  S
C1882      F1888   1.385       .  S
C1889      C1890   1.396       .  A
C1889      C1894   1.406       .  A
C1889      H1896   1.086       .  S
C1890      C1891   1.407       .  A
C1891      C1898   1.520       .  S
C1891      C1892   1.406       .  A
C1892      C1893   1.420       .  A
C1892      H1897   1.079       .  S
C1893      C1894   1.435       .  A
C1894      C1895   1.520       .  S
C1895      F1899   1.385       .  S
C1895      F1900   1.370       .  S
C1895      F1901   1.383       .  S
C1898      F1902   1.383       .  S
C1898      F1903   1.383       .  S
C1898      F1904   1.384       .  S
C1905      C1906   1.411       .  A
C1905      C1910   1.405       .  A
C1905      H1912   1.082       .  S
C1906      C1907   1.428       .  A
C1907      C1914   1.522       .  S
C1907      C1908   1.406       .  A
C1908      C1909   1.398       .  A
C1908      H1913   1.083       .  S
C1909      C1910   1.408       .  A
C1910      C1911   1.516       .  S
C1911      F1915   1.384   1_556  S
C1911      F1916   1.382       .  S
C1911      F1917   1.383       .  S
C1914      F1918   1.384       .  S
C1914      F1919   1.383       .  S
C1914      F1920   1.385       .  S
C1921      C1926   1.407       .  A
C1921      H1928   1.083       .  S
C1922      C1923   1.425   1_565  A
C1923      C1930   1.520       .  S
C1923      C1924   1.410       .  A
C1924      C1925   1.399   1_545  A
C1924      H1929   1.083       .  S
C1926      C1927   1.515       .  S
C1927      F1933   1.383       .  S
C1930      F1934   1.383       .  S
C1937      C1938   1.408       .  A
C1937      C1942   1.408       .  A
C1937      H1944   1.083       .  S
C1938      C1939   1.423       .  A
C1939      C1946   1.520       .  S
C1939      C1940   1.408       .  A
C1940      C1941   1.399       .  A
C1940      H1945   1.083       .  S
C1941      C1942   1.409       .  A
C1942      C1943   1.515       .  S
C1943      F1947   1.384       .  S
C1943      F1948   1.383       .  S
C1943      F1949   1.382       .  S
C1946      F1950   1.384       .  S
C1946      F1951   1.382       .  S
C1946      F1952   1.385       .  S
C1953      C1954   1.401       .  A
C1953      C1958   1.410       .  A
C1953      H1960   1.085       .  S
C1954      C1955   1.413       .  A
C1955      C1962   1.521       .  S
C1955      C1956   1.403       .  A
C1956      C1957   1.407       .  A
C1956      H1961   1.074       .  S
C1957      C1958   1.436       .  A
C1958      C1959   1.525       .  S
C1959      F1963   1.383       .  S
C1959      F1964   1.376       .  S
C1962      F1966   1.382       .  S
C1962      F1967   1.384       .  S
C1962      F1968   1.385       .  S
C1969      C1970   1.396       .  A
C1969      C1974   1.409       .  A
C1969      H1976   1.085       .  S
C1970      C1971   1.404       .  A
C1971      C1978   1.520       .  S
C1971      C1972   1.402       .  A
C1972      C1973   1.416       .  A
C1972      H1977   1.076       .  S
C1973      C1974   1.437       .  A
C1974      C1975   1.527       .  S
C1975      F1979   1.384       .  S
C1975      F1980   1.383       .  S
C1978      F1982   1.383       .  S
C1978      F1983   1.383       .  S
C1978      F1984   1.384       .  S
C1985      C1986   1.409       .  A
C1985      C1990   1.410       .  A
C1985      H1992   1.083       .  S
C1986      C1987   1.423       .  A
C1987      C1994   1.521       .  S
C1987      C1988   1.406       .  A
C1988      C1989   1.400       .  A
C1988      H1993   1.083       .  S
C1989      C1990   1.409       .  A
C1990      C1991   1.513       .  S
C1991      F1995   1.384       .  S
C1991      F1996   1.383       .  S
C1991      F1997   1.383       .  S
C1994      F1998   1.383       .  S
C1994      F1999   1.384       .  S
C1994      F2000   1.385       .  S
C2001      C2002   1.411       .  A
C2001      C2006   1.409       .  A
C2001      H2008   1.083       .  S
C2002      C2003   1.424       .  A
C2003      C2010   1.521       .  S
C2003      C2004   1.406       .  A
C2004      C2005   1.400       .  A
C2004      H2009   1.083       .  S
C2005      C2006   1.408       .  A
C2006      C2007   1.514       .  S
C2007      F2011   1.384       .  S
C2007      F2012   1.383       .  S
C2007      F2013   1.383       .  S
C2010      F2014   1.383       .  S
C2010      F2015   1.384       .  S
C2010      F2016   1.385       .  S
