geometry optimzed in LAMMPS
_audit_creation_date              2020-11-30 
_audit_creation_method            'lammps2cif' 
_symmetry_space_group_name_H-M    'P1' 
_symmetry_Int_Tables_number       1 
_symmetry_cell_setting            triclinic 
loop_ 
_symmetry_equiv_pos_as_xyz 
  x,y,z 
_cell_length_a                    26.676641519538055 
_cell_length_b                    26.648603945000612 
_cell_length_c                    28.038337927267527 
_cell_angle_alpha                 89.98998151969272 
_cell_angle_beta                  90.0047826292034 
_cell_angle_gamma                 89.93743181299021 
loop_ 
_atom_site_label 
_atom_site_type_symbol 
_atom_site_fract_x 
_atom_site_fract_y 
_atom_site_fract_z 
_atom_site_charge 
O1          O  0.36744157  0.48851448  0.41352258    -0.74450
O2          O  0.35326051  0.06432284  0.44943381    -0.53360
C3          C  0.34024610  0.02677277  0.42272052     0.79280
O4          O  0.48538094  0.37764433  0.59121889    -0.59050
O5          O  0.05790507  0.36029741  0.55090008    -0.52080
C6          C  0.02215437  0.34910931  0.58039743     0.71290
O7          O  0.36745676  0.48863084  0.58665210    -0.73610
O8          O  0.35326876  0.06439299  0.55061703    -0.54170
C9          C  0.34027564  0.02688983  0.57740011     0.77300
O10         O  0.48465110  0.37745525  0.40913635    -0.58750
O11         O  0.05765063  0.36045183  0.44888425    -0.51870
C12         C  0.02165191  0.34908839  0.41969280     0.73890
Zr13       Zr  0.44925572  0.45657899  0.43025365     2.54710
O14         O  0.38642557  0.39040407  0.42932905    -0.79320
O15         O  0.45327301  0.46356372  0.34373531    -0.92730
Zr16       Zr  0.44916147  0.45646520  0.56990399     2.64680
O17         O  0.38427098  0.39209171  0.57137884    -0.97690
O18         O  0.45419024  0.46393640  0.65633828    -0.79750
O19         O  0.41425034  0.49090066  0.50005016    -0.83110
O20         O  0.48338066  0.42114566  0.50007327    -2.17820
O21         O  0.12903136  0.02155089  0.40806463    -0.66500
O22         O  0.14688119  0.44964994  0.44930056    -0.51060
C23         C  0.15785430  0.48514256  0.41938703     0.72270
O24         O  0.01902457  0.13973749  0.58629734    -0.59410
O25         O  0.44295148  0.15367285  0.55090162    -0.51380
C26         C  0.48063466  0.16681147  0.57734274     0.74080
O27         O  0.12935939  0.02232665  0.59149797    -0.70800
O28         O  0.14667444  0.44977619  0.55104933    -0.49480
C29         C  0.15791057  0.48557798  0.58055118     0.75460
O30         O  0.01846276  0.13952464  0.41303668    -0.66130
O31         O  0.44289398  0.15377838  0.44928030    -0.53330
C32         C  0.48028008  0.16674114  0.42238431     0.73840
Zr33       Zr  0.05041797  0.05778108  0.43010090     2.77540
O34         O  0.11518764  0.12226932  0.42805578    -0.96880
O35         O  0.04086155  0.05304869  0.34387168    -0.77700
Zr36       Zr  0.05026105  0.05754287  0.56999243     2.70070
O37         O  0.11695203  0.11965466  0.57396137    -0.78950
O38         O  0.03968801  0.05239288  0.65608272    -0.98030
Zr39       Zr  0.42801904  0.07911242  0.50004067     2.21500
Zr40       Zr  0.07199034  0.43511952  0.50000992     2.11130
O41         O  0.08574665  0.02376985  0.50002874    -2.46720
O42         O  0.01620202  0.09275412  0.50007058    -0.78740
O43         O  0.03680461  0.47016811  0.42842064    -0.70940
O44         O  0.46284839  0.04400356  0.57171383    -2.31890
O45         O  0.46299181  0.04410539  0.42841875    -2.28100
O46         O  0.03674757  0.46997203  0.57163718    -0.72690
H47         H  0.47587742  0.38572517  0.50004871     0.79300
H48         H  0.44802815  0.05894065  0.59977290     0.80390
H49         H  0.12111581  0.03135405  0.50004910     0.82610
H50         H  0.44813803  0.05905573  0.40037767     0.80220
H51         H  0.43169566  0.49224007  0.66448069     0.43260
H52         H  0.05046970  0.01792558  0.66441441     0.42230
H53         H  0.12006052  0.13225163  0.54086609     0.41910
H54         H  0.14218062  0.10990885  0.44928461     0.39840
H55         H  0.04933927  0.01788477  0.33578559     0.42970
H56         H  0.43460590  0.49465403  0.33603127     0.37750
H57         H  0.37021667  0.39249415  0.46104088     0.43870
H58         H  0.39642643  0.36523836  0.54987168     0.40290
H59         H  0.12955970  0.12052592  0.39553510     0.45210
H60         H  0.43145927  0.43616544  0.33201437     0.43930
H61         H  0.38599690  0.37732668  0.60374963     0.44060
H62         H  0.06639754  0.07423871  0.66909100     0.44420
C63         C  0.48207088  0.21575262  0.39856131     0.03970
C64         C  0.00322491  0.25741937  0.42203645    -0.12180
C65         C  0.51843384  0.29997012  0.39605585     0.01470
C66         C  0.51315751  0.29988436  0.34622160    -0.10700
C67         C  0.49227045  0.25872615  0.32269224     0.03970
C68         C  0.47689884  0.21676432  0.34874594    -0.10120
H69         H  0.00715030  0.25699568  0.46030503     0.09560
H70         H  0.52268548  0.33325835  0.32599518     0.07090
H71         H  0.46277860  0.18401828  0.33012792     0.06940
C72         C  0.24916396  0.01344562  0.32259448     0.03970
C73         C  0.20769962  0.99312056  0.34608299    -0.12180
C74         C  0.20712271  0.98858316  0.39599278     0.01470
C75         C  0.24944009  0.00416430  0.42211986    -0.10700
C76         C  0.29134771  0.02491826  0.39870495     0.03970
C77         C  0.29079886  0.02927656  0.34880754    -0.10120
H78         H  0.17456672  0.98326795  0.32569730     0.09560
H79         H  0.24953598  0.00072765  0.46042535     0.07090
H80         H  0.32372951  0.04301673  0.33026111     0.06940
C81         C  0.24918619  0.01342933  0.67746299     0.03970
C82         C  0.29084741  0.02927490  0.65130319    -0.12180
C83         C  0.29139253  0.02507143  0.60139847     0.01470
C84         C  0.24946986  0.00447000  0.57791645    -0.10700
C85         C  0.20714242  0.98885831  0.60398775     0.03970
C86         C  0.20768917  0.99325187  0.65390814    -0.10120
H87         H  0.32379708  0.04290858  0.66989062     0.09560
H88         H  0.24956352  0.00117718  0.53959996     0.07090
H89         H  0.17452240  0.98341016  0.67424774     0.06940
C90         C  0.48244526  0.21576928  0.60124233     0.03970
C91         C  0.50371574  0.25745664  0.57788860    -0.12180
C92         C  0.51885377  0.29995243  0.60396981     0.01470
C93         C  0.51347056  0.29975680  0.65379209    -0.10700
C94         C  0.49252487  0.25855475  0.67721280     0.03970
C95         C  0.47715576  0.21667154  0.65105053    -0.10120
H96         H  0.00777093  0.25710281  0.53963224     0.09560
H97         H  0.52298818  0.33307488  0.67409523     0.07090
H98         H  0.46297249  0.18389302  0.66958206     0.06940
C99         C  0.24232171  0.02240224  0.17739692     0.03970
C100        C  0.25816467  0.48123686  0.15051143    -0.12180
C101        C  0.25319788  0.48125846  0.10073160     0.01470
C102        C  0.23192995  0.02336372  0.07797156    -0.10700
C103        C  0.21671597  0.06548381  0.10466439     0.03970
C104        C  0.22181047  0.06433186  0.15459092    -0.10120
H105        H  0.27202796  0.44796361  0.16853357     0.09560
H106        H  0.22793723  0.02362506  0.03970558     0.07090
H107        H  0.21196390  0.09715907  0.17547614     0.06940
O108        O  0.21584900  0.40597735  0.91513893    -0.74450
O109        O  0.29252661  0.41901572  0.94962630    -0.53360
C110        C  0.25454730  0.43267236  0.92378115     0.79280
O111        O  0.10410925  0.28795567  0.08996268    -0.59050
O112        O  0.08847716  0.21435122  0.05058064    -0.52080
C113        C  0.07635379  0.25053233  0.07923683     0.71290
O114        O  0.21611442  0.40570516  0.08533913    -0.73610
O115        O  0.29255998  0.41895421  0.05045332    -0.54170
C116        C  0.25470866  0.43248100  0.07651100     0.77360
O117        O  0.10373566  0.28892889  0.91057792    -0.58750
O118        O  0.08863884  0.21466860  0.94912174    -0.51870
C119        C  0.07623989  0.25117988  0.92090887     0.73890
Zr120      Zr  0.18370811  0.32383125  0.93044380     2.54710
O121        O  0.11803002  0.38731599  0.92904312    -0.79320
O122        O  0.19070113  0.32000874  0.84392867    -0.92730
Zr123      Zr  0.18377686  0.32369698  0.06990660     2.64680
O124        O  0.11996681  0.38926734  0.07205734    -0.97690
O125        O  0.19144659  0.31853013  0.15631111    -0.79750
O126        O  0.21880977  0.35818630  0.00015890    -0.83110
O127        O  0.14870092  0.28932532  0.00016039    -2.17820
O128        O  0.24801299  0.14457806  0.90584930    -0.66500
O129        O  0.17794083  0.12561570  0.94919237    -0.51060
C130        C  0.21252098  0.11519527  0.91815635     0.72270
O131        O  0.36599298  0.25343662  0.08795343    -0.59410
O132        O  0.38171066  0.32839953  0.05115830    -0.51380
C133        C  0.39382001  0.29110175  0.07869142     0.74080
O134        O  0.24917699  0.14384215  0.09309924    -0.70800
O135        O  0.17787327  0.12581317  0.05117524    -0.49480
C136        C  0.21302397  0.11494678  0.08151852     0.75460
O137        O  0.36558862  0.25413165  0.91120899    -0.66130
O138        O  0.38176008  0.32846518  0.94894558    -0.53330
C139        C  0.39362705  0.29151898  0.92090597     0.73840
Zr140      Zr  0.28469675  0.22219682  0.92985344     2.77540
O141        O  0.34840681  0.15649797  0.92889167    -0.96880
O142        O  0.28100376  0.23205822  0.84360430    -0.77700
Zr143      Zr  0.28468173  0.22216069  0.06996530     2.70070
O144        O  0.34633302  0.15482243  0.07228818    -0.78950
O145        O  0.28058176  0.23264072  0.15612409    -0.98030
Zr146      Zr  0.30711252  0.34405204  0.00002828     2.21500
Zr147      Zr  0.16308064  0.20057428  0.99998713     2.11130
O148        O  0.25136796  0.18657884  0.99989640    -2.46720
O149        O  0.32020758  0.25574843  0.99993267    -0.78740
O150        O  0.19729401  0.23612825  0.92830558    -0.70940
O151        O  0.27132484  0.30967079  0.07161951    -2.31890
O152        O  0.27123368  0.30973030  0.92847194    -2.28100
O153        O  0.19731884  0.23596886  0.07171216    -0.72690
H154        H  0.11331414  0.29685469  0.00017681     0.79300
H155        H  0.28622472  0.32443487  0.09971077     0.80390
H156        H  0.25891221  0.15114403  0.99989873     0.82610
H157        H  0.28608218  0.32460002  0.90040708     0.80220
H158        H  0.21889333  0.34197885  0.16449856     0.43260
H159        H  0.24596936  0.22279262  0.16472823     0.42230
H160        H  0.35960770  0.15316943  0.03934610     0.41910
H161        H  0.33484952  0.12909293  0.94894035     0.39840
H162        H  0.24544228  0.22597582  0.83535180     0.42970
H163        H  0.22133832  0.33932677  0.83625730     0.37750
H164        H  0.11945895  0.40298311  0.96103877     0.43870
H165        H  0.09326645  0.37782409  0.05007765     0.40290
H166        H  0.34789312  0.14299595  0.89599347     0.45210
H167        H  0.16285814  0.34132336  0.83224185     0.43930
H168        H  0.10488904  0.38703009  0.10425649     0.44060
H169        H  0.30185282  0.20529688  0.16891684     0.44420
C170        C  0.44260675  0.28797840  0.10301053     0.03970
C171        C  0.44235117  0.28460435  0.15309967    -0.12180
C172        C  0.48382303  0.26537834  0.17759200     0.01470
C173        C  0.02596659  0.24941538  0.15231533    -0.10700
C174        C  0.02718073  0.25241989  0.10245950     0.03970
C175        C  0.48539678  0.27190588  0.07789447    -0.10120
H176        H  0.40885125  0.29473411  0.17281804     0.09560
H177        H  0.05887750  0.23665520  0.17158277     0.07090
H178        H  0.48609559  0.27428013  0.03951936     0.06940
C179        C  0.24236589  0.02236063  0.82265470     0.03970
C180        C  0.25820718  0.48129774  0.84970007    -0.12180
C181        C  0.25306955  0.48143262  0.89946602     0.01470
C182        C  0.23165968  0.02358916  0.92204304    -0.10700
C183        C  0.21650679  0.06564182  0.89517925     0.03970
C184        C  0.22174042  0.06432577  0.84527470    -0.10120
H185        H  0.27215449  0.44799211  0.83180356     0.09560
H186        H  0.22750089  0.02394408  0.96029052     0.07090
H187        H  0.21185981  0.09705164  0.82424880     0.06940
C188        C  0.44247408  0.28835429  0.89667535     0.03970
C189        C  0.48527183  0.27258016  0.92196047    -0.12180
C190        C  0.02710755  0.25293176  0.89759308     0.01470
C191        C  0.02599127  0.24958954  0.84775437    -0.10700
C192        C  0.48388023  0.26535618  0.82230123     0.03970
C193        C  0.44233115  0.28466268  0.84660424    -0.10120
H194        H  0.48591900  0.27528196  0.96031659     0.09560
H195        H  0.05895646  0.23675133  0.82862690     0.07090
H196        H  0.40886269  0.29463421  0.82675811     0.06940
C197        C  0.48682672  0.25968705  0.72823539    -0.12430
C198        C  0.48398143  0.26205348  0.77107930    -0.13990
C199        C  0.24858858  0.01805961  0.72861054    -0.12430
C200        C  0.24643758  0.02084166  0.77148031    -0.13990
C201        C  0.24854850  0.01821662  0.27145290    -0.12430
C202        C  0.24635731  0.02102305  0.22858255    -0.13990
C203        C  0.48381052  0.26229091  0.22882282    -0.12430
C204        C  0.48662132  0.25996559  0.27166956    -0.13990
O205        O  0.36744156  0.98851445  0.41352268    -0.74450
O206        O  0.35326048  0.56432283  0.44943378    -0.53360
C207        C  0.34024610  0.52677278  0.42272045     0.79280
O208        O  0.48538096  0.87764431  0.59121889    -0.59050
O209        O  0.05790506  0.86029742  0.55090009    -0.52080
C210        C  0.02215437  0.84910932  0.58039746     0.71290
O211        O  0.36745680  0.98863085  0.58665211    -0.73610
O212        O  0.35326872  0.56439298  0.55061704    -0.54170
C213        C  0.34027560  0.52688982  0.57740011     0.77300
O214        O  0.48465111  0.87745524  0.40913637    -0.58750
O215        O  0.05765064  0.86045184  0.44888426    -0.51870
C216        C  0.02165191  0.84908839  0.41969281     0.73890
Zr217      Zr  0.44925572  0.95657897  0.43025367     2.54710
O218        O  0.38642559  0.89040404  0.42932907    -0.79320
O219        O  0.45327296  0.96356372  0.34373533    -0.92730
Zr220      Zr  0.44916150  0.95646520  0.56990401     2.64680
O221        O  0.38427100  0.89209172  0.57137885    -0.97690
O222        O  0.45419027  0.96393637  0.65633830    -0.79750
O223        O  0.41425037  0.99090066  0.50005018    -0.83110
O224        O  0.48338068  0.92114565  0.50007329    -2.17820
O225        O  0.12903140  0.52155090  0.40806467    -0.66500
O226        O  0.14688119  0.94964998  0.44930058    -0.51060
C227        C  0.15785428  0.98514258  0.41938702     0.72270
O228        O  0.01902463  0.63973748  0.58629733    -0.59410
O229        O  0.44295143  0.65367286  0.55090161    -0.51380
C230        C  0.48063458  0.66681147  0.57734275     0.74080
O231        O  0.12935934  0.52232656  0.59149807    -0.70800
O232        O  0.14667442  0.94977620  0.55104933    -0.49480
C233        C  0.15791060  0.98557804  0.58055112     0.75460
O234        O  0.01846279  0.63952464  0.41303669    -0.66130
O235        O  0.44289393  0.65377839  0.44928029    -0.53330
C236        C  0.48028002  0.66674115  0.42238429     0.73840
Zr237      Zr  0.05041800  0.55778108  0.43010092     2.77540
O238        O  0.11518766  0.62226934  0.42805579    -0.96880
O239        O  0.04086161  0.55304867  0.34387170    -0.77700
Zr240      Zr  0.05026106  0.55754285  0.56999244     2.70070
O241        O  0.11695214  0.61965454  0.57396124    -0.78950
O242        O  0.03968802  0.55239303  0.65608273    -0.98030
Zr243      Zr  0.42801900  0.57911243  0.50004066     2.21500
Zr244      Zr  0.07199033  0.93511954  0.50000993     2.11130
O245        O  0.08574667  0.52376983  0.50002875    -2.46720
O246        O  0.01620205  0.59275412  0.50007059    -0.78740
O247        O  0.03680459  0.97016811  0.42842065    -0.70940
O248        O  0.46284834  0.54400357  0.57171382    -2.31890
O249        O  0.46299178  0.54410541  0.42841875    -2.28100
O250        O  0.03674756  0.96997205  0.57163719    -0.72690
H251        H  0.47587743  0.88572515  0.50004873     0.79300
H252        H  0.44802810  0.55894065  0.59977289     0.80390
H253        H  0.12111583  0.53135403  0.50004913     0.82610
H254        H  0.44813801  0.55905575  0.40037766     0.80220
H255        H  0.43169573  0.99224008  0.66448071     0.43260
H256        H  0.05046957  0.51792569  0.66441447     0.42230
H257        H  0.12006045  0.63225164  0.54086599     0.41910
H258        H  0.14218064  0.60990887  0.44928461     0.39840
H259        H  0.04933942  0.51788477  0.33578561     0.42970
H260        H  0.43460580  0.99465400  0.33603130     0.37750
H261        H  0.37021670  0.89249410  0.46104091     0.43870
H262        H  0.39642645  0.86523837  0.54987169     0.40290
H263        H  0.12955972  0.62052593  0.39553510     0.45210
H264        H  0.43145926  0.93616540  0.33201440     0.43930
H265        H  0.38599692  0.87732668  0.60374965     0.44060
H266        H  0.06639764  0.57423876  0.66909099     0.44420
C267        C  0.48207083  0.71575262  0.39856130     0.03970
C268        C  0.00322493  0.75741937  0.42203647    -0.12180
C269        C  0.51843384  0.79997010  0.39605586     0.01470
C270        C  0.51315754  0.79988436  0.34622161    -0.10700
C271        C  0.49227047  0.75872616  0.32269224     0.03970
C272        C  0.47689882  0.71676434  0.34874593    -0.10120
H273        H  0.00715032  0.75699568  0.46030504     0.09560
H274        H  0.52268554  0.83325834  0.32599519     0.07090
H275        H  0.46277857  0.68401830  0.33012790     0.06940
C276        C  0.24916390  0.51344564  0.32259445     0.03970
C277        C  0.20769958  0.49312055  0.34608297    -0.12180
C278        C  0.20712271  0.48858314  0.39599277     0.01470
C279        C  0.24944010  0.50416429  0.42211983    -0.10700
C280        C  0.29134770  0.52491826  0.39870489     0.03970
C281        C  0.29079882  0.52927658  0.34880748    -0.10120
H282        H  0.17456668  0.48326794  0.32569730     0.09560
H283        H  0.24953602  0.50072763  0.46042532     0.07090
H284        H  0.32372945  0.54301677  0.33026104     0.06940
C285        C  0.24918616  0.51342939  0.67746302     0.03970
C286        C  0.29084738  0.52927495  0.65130320    -0.12180
C287        C  0.29139249  0.52507142  0.60139848     0.01470
C288        C  0.24946983  0.50446994  0.57791649    -0.10700
C289        C  0.20714240  0.48885827  0.60398781     0.03970
C290        C  0.20768915  0.49325189  0.65390819    -0.10120
H291        H  0.32379704  0.54290866  0.66989062     0.09560
H292        H  0.24956349  0.50117708  0.53960000     0.07090
H293        H  0.17452238  0.48341018  0.67424781     0.06940
C294        C  0.48244519  0.71576928  0.60124233     0.03970
C295        C  0.50371570  0.75745663  0.57788860    -0.12180
C296        C  0.51885377  0.79995240  0.60396981     0.01470
C297        C  0.51347057  0.79975678  0.65379208    -0.10700
C298        C  0.49252486  0.75855475  0.67721281     0.03970
C299        C  0.47715571  0.71667155  0.65105053    -0.10120
H300        H  0.00777095  0.75710283  0.53963226     0.09560
H301        H  0.52298823  0.83307485  0.67409523     0.07090
H302        H  0.46297242  0.68389303  0.66958207     0.06940
C303        C  0.24232164  0.52240223  0.17739688     0.03970
C304        C  0.25816478  0.98123693  0.15051141    -0.12180
C305        C  0.25319788  0.98125856  0.10073160     0.01470
C306        C  0.23193008  0.52336365  0.07797150    -0.10700
C307        C  0.21671610  0.56548378  0.10466427     0.03970
C308        C  0.22181051  0.56433186  0.15459081    -0.10120
H309        H  0.27202815  0.94796369  0.16853351     0.09560
H310        H  0.22793744  0.52362496  0.03970552     0.07090
H311        H  0.21196397  0.59715911  0.17547599     0.06940
O312        O  0.21584900  0.90597744  0.91513899    -0.74450
O313        O  0.29252665  0.91901580  0.94962629    -0.53360
C314        C  0.25454731  0.93267244  0.92378117     0.79280
O315        O  0.10410931  0.78795576  0.08996271    -0.59050
O316        O  0.08847722  0.71435131  0.05058065    -0.52080
C317        C  0.07635384  0.75053242  0.07923685     0.71290
O318        O  0.21611441  0.90570528  0.08533907    -0.73610
O319        O  0.29256001  0.91895431  0.05045333    -0.54170
C320        C  0.25470866  0.93248111  0.07651097     0.77360
O321        O  0.10373571  0.78892896  0.91057794    -0.58750
O322        O  0.08863890  0.71466866  0.94912176    -0.51870
C323        C  0.07623994  0.75117995  0.92090889     0.73890
Zr324      Zr  0.18370815  0.82383131  0.93044382     2.54710
O325        O  0.11803005  0.88731603  0.92904308    -0.79320
O326        O  0.19070124  0.82000879  0.84392869    -0.92730
Zr327      Zr  0.18377691  0.82369706  0.06990661     2.64680
O328        O  0.11996685  0.88926741  0.07205738    -0.97690
O329        O  0.19144670  0.81853026  0.15631112    -0.79750
O330        O  0.21880982  0.85818638  0.00015891    -0.83110
O331        O  0.14870098  0.78932538  0.00016040    -2.17820
O332        O  0.24801325  0.64457797  0.90584957    -0.66500
O333        O  0.17794087  0.62561576  0.94919238    -0.51060
C334        C  0.21252113  0.61519524  0.91815649     0.72270
O335        O  0.36599298  0.75343683  0.08795353    -0.59410
O336        O  0.38171072  0.82839967  0.05115829    -0.51380
C337        C  0.39382005  0.79110192  0.07869146     0.74080
O338        O  0.24917730  0.64384201  0.09309893    -0.70800
O339        O  0.17787331  0.62581323  0.05117528    -0.49480
C340        C  0.21302415  0.61494673  0.08151836     0.75460
O341        O  0.36558864  0.75413182  0.91120894    -0.66130
O342        O  0.38176013  0.82846529  0.94894561    -0.53330
C343        C  0.39362709  0.79151912  0.92090595     0.73840
Zr344      Zr  0.28469682  0.72219691  0.92985346     2.77540
O345        O  0.34840711  0.65649829  0.92889153    -0.96880
O346        O  0.28100347  0.73205824  0.84360432    -0.77700
Zr347      Zr  0.28468178  0.72216080  0.06996534     2.70070
O348        O  0.34633340  0.65482286  0.07228867    -0.78950
O349        O  0.28058120  0.73264079  0.15612411    -0.98030
Zr350      Zr  0.30711256  0.84405214  0.00002830     2.21500
Zr351      Zr  0.16308071  0.70057434  0.99998715     2.11130
O352        O  0.25136804  0.68657894  0.99989643    -2.46720
O353        O  0.32020762  0.75574853  0.99993269    -0.78740
O354        O  0.19729407  0.73612831  0.92830560    -0.70940
O355        O  0.27132489  0.80967090  0.07161954    -2.31890
O356        O  0.27123373  0.80973039  0.92847195    -2.28100
O357        O  0.19731889  0.73596893  0.07171218    -0.72690
H358        H  0.11331419  0.79685475  0.00017683     0.79300
H359        H  0.28622477  0.82443499  0.09971080     0.80390
H360        H  0.25891231  0.65114414  0.99989875     0.82610
H361        H  0.28608223  0.82460011  0.90040710     0.80220
H362        H  0.21889335  0.84197908  0.16449856     0.43260
H363        H  0.24596889  0.72279221  0.16472808     0.42230
H364        H  0.35960778  0.65316940  0.03934650     0.41910
H365        H  0.33485005  0.62909330  0.94894041     0.39840
H366        H  0.24544205  0.72597541  0.83535191     0.42970
H367        H  0.22133839  0.83932688  0.83625733     0.37750
H368        H  0.11945889  0.90298310  0.96103874     0.43870
H369        H  0.09326649  0.87782416  0.05007768     0.40290
H370        H  0.34789324  0.64299613  0.89599340     0.45210
H371        H  0.16285821  0.84132335  0.83224185     0.43930
H372        H  0.10488908  0.88703014  0.10425652     0.44060
H373        H  0.30185257  0.70529725  0.16891696     0.44420
C374        C  0.44260680  0.78797856  0.10301056     0.03970
C375        C  0.44235123  0.78460449  0.15309969    -0.12180
C376        C  0.48382307  0.76537841  0.17759200     0.01470
C377        C  0.02596664  0.74941546  0.15231534    -0.10700
C378        C  0.02718078  0.75241998  0.10245951     0.03970
C379        C  0.48539680  0.77190601  0.07789448    -0.10120
H380        H  0.40885133  0.79473428  0.17281808     0.09560
H381        H  0.05887756  0.73665530  0.17158279     0.07090
H382        H  0.48609560  0.77428028  0.03951937     0.06940
C383        C  0.24236589  0.52236066  0.82265474     0.03970
C384        C  0.25820723  0.98129776  0.84970007    -0.12180
C385        C  0.25306956  0.98143268  0.89946602     0.01470
C386        C  0.23165975  0.52358911  0.92204309    -0.10700
C387        C  0.21650689  0.56564182  0.89517935     0.03970
C388        C  0.22174049  0.56432581  0.84527480    -0.10120
H389        H  0.27215459  0.94799213  0.83180360     0.09560
H390        H  0.22750099  0.52394400  0.96029057     0.07090
H391        H  0.21185991  0.59705172  0.82424894     0.06940
C392        C  0.44247412  0.78835442  0.89667533     0.03970
C393        C  0.48527185  0.77258027  0.92196046    -0.12180
C394        C  0.02710760  0.75293181  0.89759311     0.01470
C395        C  0.02599133  0.74958958  0.84775439    -0.10700
C396        C  0.48388026  0.76535623  0.82230123     0.03970
C397        C  0.44233119  0.78466279  0.84660423    -0.10120
H398        H  0.48591903  0.77528208  0.96031658     0.09560
H399        H  0.05895652  0.73675137  0.82862693     0.07090
H400        H  0.40886274  0.79463434  0.82675809     0.06940
C401        C  0.48682672  0.75968705  0.72823539    -0.12430
C402        C  0.48398144  0.76205350  0.77107930    -0.13990
C403        C  0.24858856  0.51805970  0.72861057    -0.12430
C404        C  0.24643756  0.52084174  0.77148035    -0.13990
C405        C  0.24854839  0.51821666  0.27145287    -0.12430
C406        C  0.24635719  0.52102308  0.22858251    -0.13990
C407        C  0.48381057  0.76229094  0.22882281    -0.12430
C408        C  0.48662136  0.75996561  0.27166955    -0.13990
O409        O  0.86744157  0.48851449  0.41352262    -0.74450
O410        O  0.85326047  0.06432284  0.44943379    -0.53360
C411        C  0.84024608  0.02677277  0.42272050     0.79280
O412        O  0.98538092  0.37764433  0.59121890    -0.59050
O413        O  0.55790509  0.36029742  0.55090007    -0.52080
C414        C  0.52215440  0.34910931  0.58039743     0.71290
O415        O  0.86745676  0.48863085  0.58665209    -0.73610
O416        O  0.85326871  0.06439300  0.55061703    -0.54170
C417        C  0.84027558  0.02688982  0.57740010     0.77300
O418        O  0.98465110  0.37745526  0.40913637    -0.58750
O419        O  0.55765064  0.36045183  0.44888423    -0.51870
C420        C  0.52165192  0.34908839  0.41969278     0.73890
Zr421      Zr  0.94925572  0.45657900  0.43025366     2.54710
O422        O  0.88642557  0.39040408  0.42932906    -0.79320
O423        O  0.95327301  0.46356373  0.34373533    -0.92730
Zr424      Zr  0.94916147  0.45646521  0.56990400     2.64680
O425        O  0.88427097  0.39209174  0.57137887    -0.97690
O426        O  0.95419025  0.46393643  0.65633829    -0.79750
O427        O  0.91425035  0.49090068  0.50005017    -0.83110
O428        O  0.98338066  0.42114567  0.50007329    -2.17820
O429        O  0.62903138  0.02155084  0.40806458    -0.66500
O430        O  0.64688119  0.44964996  0.44930055    -0.51060
C431        C  0.65785431  0.48514259  0.41938703     0.72270
O432        O  0.51902470  0.13973749  0.58629729    -0.59410
O433        O  0.94295140  0.15367288  0.55090160    -0.51380
C434        C  0.98063455  0.16681148  0.57734276     0.74080
O435        O  0.62935933  0.02232649  0.59149812    -0.70800
O436        O  0.64667444  0.44977620  0.55104931    -0.49480
C437        C  0.65791057  0.48557799  0.58055116     0.75460
O438        O  0.51846283  0.13952463  0.41303670    -0.66130
O439        O  0.94289393  0.15377840  0.44928030    -0.53330
C440        C  0.98028002  0.16674115  0.42238430     0.73840
Zr441      Zr  0.55041802  0.05778106  0.43010090     2.77540
O442        O  0.61518774  0.12226926  0.42805582    -0.96880
O443        O  0.54086160  0.05304874  0.34387168    -0.77700
Zr444      Zr  0.55026110  0.05754284  0.56999241     2.70070
O445        O  0.61695226  0.11965445  0.57396111    -0.78950
O446        O  0.53968804  0.05239316  0.65608272    -0.98030
Zr447      Zr  0.92801899  0.07911244  0.50004066     2.21500
Zr448      Zr  0.57199034  0.43511953  0.50000990     2.11130
O449        O  0.58574670  0.02376981  0.50002873    -2.46720
O450        O  0.51620208  0.09275411  0.50007058    -0.78740
O451        O  0.53680461  0.47016812  0.42842063    -0.70940
O452        O  0.96284833  0.04400360  0.57171383    -2.31890
O453        O  0.96299176  0.04410540  0.42841875    -2.28100
O454        O  0.53674757  0.46997202  0.57163717    -0.72690
H455        H  0.97587741  0.38572518  0.50004873     0.79300
H456        H  0.94802809  0.05894069  0.59977290     0.80390
H457        H  0.62111586  0.03135400  0.50004911     0.82610
H458        H  0.94813798  0.05905573  0.40037766     0.80220
H459        H  0.93169563  0.49224008  0.66448070     0.43260
H460        H  0.55046946  0.01792579  0.66441449     0.42230
H461        H  0.62006047  0.13225160  0.54086587     0.41910
H462        H  0.64218073  0.10990873  0.44928460     0.39840
H463        H  0.54933923  0.01788481  0.33578558     0.42970
H464        H  0.93460588  0.49465403  0.33603129     0.37750
H465        H  0.87021668  0.39249414  0.46104090     0.43870
H466        H  0.89642641  0.36523839  0.54987171     0.40290
H467        H  0.62955976  0.12052591  0.39553513     0.45210
H468        H  0.93145929  0.43616543  0.33201439     0.43930
H469        H  0.88599690  0.37732670  0.60374967     0.44060
H470        H  0.56639775  0.07423880  0.66909095     0.44420
C471        C  0.98207083  0.21575263  0.39856131     0.03970
C472        C  0.50322495  0.25741936  0.42203645    -0.12180
C473        C  0.01843383  0.29997012  0.39605586     0.01470
C474        C  0.01315751  0.29988437  0.34622161    -0.10700
C475        C  0.99227044  0.25872617  0.32269224     0.03970
C476        C  0.97689880  0.21676435  0.34874594    -0.10120
H477        H  0.50715035  0.25699568  0.46030502     0.09560
H478        H  0.02268549  0.33325836  0.32599519     0.07090
H479        H  0.96277856  0.18401831  0.33012791     0.06940
C480        C  0.74916397  0.01344558  0.32259445     0.03970
C481        C  0.70769963  0.99312050  0.34608295    -0.12180
C482        C  0.70712272  0.98858310  0.39599274     0.01470
C483        C  0.74944008  0.00416427  0.42211983    -0.10700
C484        C  0.79134769  0.02491825  0.39870492     0.03970
C485        C  0.79079885  0.02927654  0.34880751    -0.10120
H486        H  0.67456674  0.98326787  0.32569726     0.09560
H487        H  0.74953597  0.00072763  0.46042533     0.07090
H488        H  0.82372950  0.04301673  0.33026109     0.06940
C489        C  0.74918618  0.01342938  0.67746302     0.03970
C490        C  0.79084737  0.02927496  0.65130318    -0.12180
C491        C  0.79139248  0.02507143  0.60139846     0.01470
C492        C  0.74946982  0.00446992  0.57791649    -0.10700
C493        C  0.70714241  0.98885822  0.60398782     0.03970
C494        C  0.70768917  0.99325185  0.65390820    -0.10120
H495        H  0.82379703  0.04290870  0.66989059     0.09560
H496        H  0.74956347  0.00117704  0.53959999     0.07090
H497        H  0.67452242  0.98341013  0.67424783     0.06940
C498        C  0.98244515  0.21576930  0.60124234     0.03970
C499        C  0.00371565  0.25745665  0.57788861    -0.12180
C500        C  0.01885372  0.29995242  0.60396982     0.01470
C501        C  0.01347052  0.29975680  0.65379209    -0.10700
C502        C  0.99252482  0.25855476  0.67721281     0.03970
C503        C  0.97715566  0.21667157  0.65105054    -0.10120
H504        H  0.50777103  0.25710281  0.53963224     0.09560
H505        H  0.02298818  0.33307486  0.67409523     0.07090
H506        H  0.96297238  0.18389305  0.66958208     0.06940
C507        C  0.74232173  0.02240223  0.17739689     0.03970
C508        C  0.75816474  0.48123691  0.15051139    -0.12180
C509        C  0.75319785  0.48125854  0.10073157     0.01470
C510        C  0.73192996  0.02336374  0.07797154    -0.10700
C511        C  0.71671601  0.06548383  0.10466437     0.03970
C512        C  0.72181052  0.06433187  0.15459090    -0.10120
H513        H  0.77202808  0.44796365  0.16853348     0.09560
H514        H  0.72793723  0.02362508  0.03970556     0.07090
H515        H  0.71196398  0.09715908  0.17547613     0.06940
O516        O  0.71584901  0.40597738  0.91513892    -0.74450
O517        O  0.79252663  0.41901576  0.94962629    -0.53360
C518        C  0.75454731  0.43267239  0.92378114     0.79280
O519        O  0.60410925  0.28795573  0.08996267    -0.59050
O520        O  0.58847719  0.21435125  0.05058065    -0.52080
C521        C  0.57635380  0.25053238  0.07923683     0.71290
O522        O  0.71611435  0.40570528  0.08533902    -0.73610
O523        O  0.79255998  0.41895427  0.05045332    -0.54170
C524        C  0.75470862  0.43248109  0.07651094     0.77360
O525        O  0.60373569  0.28892891  0.91057790    -0.58750
O526        O  0.58863886  0.21466863  0.94912175    -0.51870
C527        C  0.57623992  0.25117991  0.92090886     0.73890
Zr528      Zr  0.68370813  0.32383127  0.93044378     2.54710
O529        O  0.61803004  0.38731601  0.92904306    -0.79320
O530        O  0.69070119  0.32000875  0.84392866    -0.92730
Zr531      Zr  0.68377685  0.32369705  0.06990658     2.64680
O532        O  0.61996678  0.38926739  0.07205733    -0.97690
O533        O  0.69144663  0.31853027  0.15631109    -0.79750
O534        O  0.71880978  0.35818635  0.00015888    -0.83110
O535        O  0.64870093  0.28932536  0.00016037    -2.17820
O536        O  0.74801313  0.14457801  0.90584948    -0.66500
O537        O  0.67794083  0.12561573  0.94919237    -0.51060
C538        C  0.71252105  0.11519525  0.91815644     0.72270
O539        O  0.86599297  0.25343669  0.08795346    -0.59410
O540        O  0.88171067  0.32839958  0.05115831    -0.51380
C541        C  0.89382002  0.29110180  0.07869143     0.74080
O542        O  0.74917701  0.14384219  0.09309925    -0.70800
O543        O  0.67787330  0.12581320  0.05117524    -0.49480
C544        C  0.71302400  0.11494681  0.08151851     0.75460
O545        O  0.86558863  0.25413172  0.91120900    -0.66130
O546        O  0.88176009  0.32846524  0.94894560    -0.53330
C547        C  0.89362706  0.29151905  0.92090597     0.73840
Zr548      Zr  0.78469679  0.22219686  0.92985348     2.77540
O549        O  0.84840696  0.15649812  0.92889165    -0.96880
O550        O  0.78100364  0.23205820  0.84360434    -0.77700
Zr551      Zr  0.78468171  0.22216076  0.06996534     2.70070
O552        O  0.84633303  0.15482254  0.07228831    -0.78950
O553        O  0.78058167  0.23264082  0.15612413    -0.98030
Zr554      Zr  0.80711252  0.34405209  0.00002830     2.21500
Zr555      Zr  0.66308066  0.20057432  0.99998714     2.11130
O556        O  0.75136798  0.18657890  0.99989644    -2.46720
O557        O  0.82020758  0.25574849  0.99993271    -0.78740
O558        O  0.69729405  0.23612827  0.92830559    -0.70940
O559        O  0.77132483  0.30967087  0.07161953    -2.31890
O560        O  0.77123370  0.30973033  0.92847195    -2.28100
O561        O  0.69731883  0.23596893  0.07171217    -0.72690
H562        H  0.61331415  0.29685472  0.00017679     0.79300
H563        H  0.78622470  0.32443496  0.09971079     0.80390
H564        H  0.75891224  0.15114409  0.99989878     0.82610
H565        H  0.78608222  0.32460005  0.90040709     0.80220
H566        H  0.71889328  0.34197910  0.16449852     0.43260
H567        H  0.74596928  0.22279268  0.16472825     0.42230
H568        H  0.85960771  0.15316949  0.03934623     0.41910
H569        H  0.83484978  0.12909310  0.94894042     0.39840
H570        H  0.74544219  0.22597560  0.83535188     0.42970
H571        H  0.72133838  0.33932678  0.83625729     0.37750
H572        H  0.61945893  0.40298311  0.96103872     0.43870
H573        H  0.59326642  0.37782413  0.05007764     0.40290
H574        H  0.84789319  0.14299603  0.89599348     0.45210
H575        H  0.66285820  0.34132335  0.83224182     0.43930
H576        H  0.60488900  0.38703013  0.10425647     0.44060
H577        H  0.80185276  0.20529702  0.16891690     0.44420
C578        C  0.94260676  0.28797844  0.10301053     0.03970
C579        C  0.94235118  0.28460440  0.15309967    -0.12180
C580        C  0.98382303  0.26537836  0.17759200     0.01470
C581        C  0.52596660  0.24941540  0.15231533    -0.10700
C582        C  0.52718075  0.25241992  0.10245950     0.03970
C583        C  0.98539678  0.27190588  0.07789447    -0.10120
H584        H  0.90885128  0.29473419  0.17281804     0.09560
H585        H  0.55887752  0.23665524  0.17158278     0.07090
H586        H  0.98609558  0.27428012  0.03951936     0.06940
C587        C  0.74236592  0.02236067  0.82265473     0.03970
C588        C  0.75820719  0.48129776  0.84970006    -0.12180
C589        C  0.75306956  0.48143264  0.89946601     0.01470
C590        C  0.73165972  0.02358914  0.92204307    -0.10700
C591        C  0.71650683  0.06564182  0.89517932     0.03970
C592        C  0.72174046  0.06432581  0.84527476    -0.10120
H593        H  0.77215453  0.44799213  0.83180356     0.09560
H594        H  0.72750094  0.02394403  0.96029055     0.07090
H595        H  0.71185986  0.09705170  0.82424889     0.06940
C596        C  0.94247409  0.28835436  0.89667536     0.03970
C597        C  0.98527182  0.27258019  0.92196048    -0.12180
C598        C  0.52710758  0.25293177  0.89759307     0.01470
C599        C  0.52599130  0.24958956  0.84775436    -0.10700
C600        C  0.98388022  0.26535620  0.82230124     0.03970
C601        C  0.94233115  0.28466274  0.84660425    -0.10120
H602        H  0.98591900  0.27528199  0.96031660     0.09560
H603        H  0.55895650  0.23675137  0.82862689     0.07090
H604        H  0.90886270  0.29463429  0.82675812     0.06940
C605        C  0.98682668  0.25968706  0.72823540    -0.12430
C606        C  0.98398141  0.26205349  0.77107931    -0.13990
C607        C  0.74858859  0.01805969  0.72861057    -0.12430
C608        C  0.74643760  0.02084174  0.77148034    -0.13990
C609        C  0.74854851  0.01821658  0.27145287    -0.12430
C610        C  0.74635733  0.02102302  0.22858251    -0.13990
C611        C  0.98381052  0.26229093  0.22882282    -0.12430
C612        C  0.98662132  0.25996562  0.27166956    -0.13990
O613        O  0.86744153  0.98851445  0.41352267    -0.74450
O614        O  0.85326049  0.56432286  0.44943380    -0.53360
C615        C  0.84024611  0.52677280  0.42272048     0.79280
O616        O  0.98538092  0.87764435  0.59121893    -0.59050
O617        O  0.55790510  0.86029739  0.55090007    -0.52080
C618        C  0.52215441  0.84910929  0.58039743     0.71290
O619        O  0.86745674  0.98863085  0.58665209    -0.73610
O620        O  0.85326873  0.56439300  0.55061704    -0.54170
C621        C  0.84027560  0.52688983  0.57740011     0.77300
O622        O  0.98465109  0.87745524  0.40913639    -0.58750
O623        O  0.55765065  0.86045181  0.44888424    -0.51870
C624        C  0.52165192  0.84908837  0.41969279     0.73890
Zr625      Zr  0.94925569  0.95657898  0.43025369     2.54710
O626        O  0.88642556  0.89040404  0.42932910    -0.79320
O627        O  0.95327294  0.96356370  0.34373535    -0.92730
Zr628      Zr  0.94916146  0.95646523  0.56990402     2.64680
O629        O  0.88427097  0.89209174  0.57137891    -0.97690
O630        O  0.95419023  0.96393647  0.65633831    -0.79750
O631        O  0.91425033  0.99090067  0.50005019    -0.83110
O632        O  0.98338065  0.92114567  0.50007331    -2.17820
O633        O  0.62903141  0.52155093  0.40806466    -0.66500
O634        O  0.64688120  0.94964993  0.44930055    -0.51060
C635        C  0.65785429  0.98514252  0.41938698     0.72270
O636        O  0.51902461  0.63973747  0.58629732    -0.59410
O637        O  0.94295144  0.65367287  0.55090162    -0.51380
C638        C  0.98063460  0.66681148  0.57734277     0.74080
O639        O  0.62935934  0.52232656  0.59149806    -0.70800
O640        O  0.64667445  0.94977616  0.55104931    -0.49480
C641        C  0.65791057  0.98557793  0.58055120     0.75460
O642        O  0.51846276  0.63952463  0.41303667    -0.66130
O643        O  0.94289396  0.65377840  0.44928031    -0.53330
C644        C  0.98028005  0.66674116  0.42238431     0.73840
Zr645      Zr  0.55041799  0.55778109  0.43010090     2.77540
O646        O  0.61518763  0.62226937  0.42805577    -0.96880
O647        O  0.54086161  0.55304865  0.34387169    -0.77700
Zr648      Zr  0.55026105  0.55754285  0.56999242     2.70070
O649        O  0.61695212  0.61965455  0.57396125    -0.78950
O650        O  0.53968800  0.55239301  0.65608272    -0.98030
Zr651      Zr  0.92801901  0.57911244  0.50004067     2.21500
Zr652      Zr  0.57199036  0.93511951  0.50000991     2.11130
O653        O  0.58574667  0.52376984  0.50002874    -2.46720
O654        O  0.51620203  0.59275411  0.50007058    -0.78740
O655        O  0.53680462  0.97016809  0.42842064    -0.70940
O656        O  0.96284835  0.54400358  0.57171383    -2.31890
O657        O  0.96299179  0.54410541  0.42841876    -2.28100
O658        O  0.53674760  0.96997201  0.57163717    -0.72690
H659        H  0.97587740  0.88572518  0.50004876     0.79300
H660        H  0.94802811  0.55894067  0.59977291     0.80390
H661        H  0.62111582  0.53135404  0.50004911     0.82610
H662        H  0.94813802  0.55905576  0.40037767     0.80220
H663        H  0.93169559  0.99224011  0.66448071     0.43260
H664        H  0.55046956  0.51792568  0.66441445     0.42230
H665        H  0.62006043  0.63225166  0.54086600     0.41910
H666        H  0.64218060  0.60990892  0.44928461     0.39840
H667        H  0.54933944  0.51788476  0.33578560     0.42970
H668        H  0.93460577  0.99465397  0.33603131     0.37750
H669        H  0.87021668  0.89249410  0.46104094     0.43870
H670        H  0.89642641  0.86523838  0.54987176     0.40290
H671        H  0.62955969  0.62052596  0.39553510     0.45210
H672        H  0.93145924  0.93616538  0.33201442     0.43930
H673        H  0.88599691  0.87732672  0.60374971     0.44060
H674        H  0.56639761  0.57423875  0.66909098     0.44420
C675        C  0.98207086  0.71575263  0.39856132     0.03970
C676        C  0.50322491  0.75741936  0.42203645    -0.12180
C677        C  0.01843385  0.79997012  0.39605588     0.01470
C678        C  0.01315753  0.79988438  0.34622163    -0.10700
C679        C  0.99227047  0.75872618  0.32269226     0.03970
C680        C  0.97689884  0.71676435  0.34874594    -0.10120
H681        H  0.50715028  0.75699567  0.46030502     0.09560
H682        H  0.02268552  0.83325837  0.32599521     0.07090
H683        H  0.96277860  0.68401831  0.33012791     0.06940
C684        C  0.74916395  0.51344560  0.32259446     0.03970
C685        C  0.70769962  0.49312053  0.34608298    -0.12180
C686        C  0.70712272  0.48858316  0.39599278     0.01470
C687        C  0.74944010  0.50416433  0.42211984    -0.10700
C688        C  0.79134771  0.52491828  0.39870491     0.03970
C689        C  0.79079886  0.52927655  0.34880750    -0.10120
H690        H  0.67456672  0.48326791  0.32569730     0.09560
H691        H  0.74953600  0.50072771  0.46042534     0.07090
H692        H  0.82372950  0.54301672  0.33026106     0.06940
C693        C  0.74918616  0.51342939  0.67746301     0.03970
C694        C  0.79084738  0.52927496  0.65130319    -0.12180
C695        C  0.79139249  0.52507144  0.60139847     0.01470
C696        C  0.74946983  0.50446996  0.57791647    -0.10700
C697        C  0.70714240  0.48885828  0.60398779     0.03970
C698        C  0.70768915  0.49325189  0.65390817    -0.10120
H699        H  0.82379704  0.54290867  0.66989061     0.09560
H700        H  0.74956349  0.50117710  0.53959998     0.07090
H701        H  0.67452239  0.48341018  0.67424779     0.06940
C702        C  0.98244520  0.71576929  0.60124236     0.03970
C703        C  0.00371568  0.75745666  0.57788863    -0.12180
C704        C  0.01885373  0.79995244  0.60396984     0.01470
C705        C  0.01347054  0.79975681  0.65379211    -0.10700
C706        C  0.99252486  0.75855476  0.67721283     0.03970
C707        C  0.97715573  0.71667155  0.65105055    -0.10120
H708        H  0.50777098  0.75710280  0.53963223     0.09560
H709        H  0.02298818  0.83307488  0.67409526     0.07090
H710        H  0.96297246  0.68389302  0.66958210     0.06940
C711        C  0.74232170  0.52240222  0.17739690     0.03970
C712        C  0.75816478  0.98123692  0.15051137    -0.12180
C713        C  0.75319787  0.98125855  0.10073156     0.01470
C714        C  0.73192997  0.52336373  0.07797154    -0.10700
C715        C  0.71671602  0.56548383  0.10466437     0.03970
C716        C  0.72181051  0.56433187  0.15459089    -0.10120
H717        H  0.77202814  0.94796366  0.16853347     0.09560
H718        H  0.72793725  0.52362508  0.03970556     0.07090
H719        H  0.71196396  0.59715908  0.17547612     0.06940
O720        O  0.71584903  0.90597739  0.91513894    -0.74450
O721        O  0.79252665  0.91901577  0.94962630    -0.53360
C722        C  0.75454733  0.93267241  0.92378115     0.79280
O723        O  0.60410926  0.78795577  0.08996264    -0.59050
O724        O  0.58847719  0.71435128  0.05058064    -0.52080
C725        C  0.57635381  0.75053242  0.07923681     0.71290
O726        O  0.71611436  0.90570530  0.08533900    -0.73610
O727        O  0.79256001  0.91895427  0.05045332    -0.54170
C728        C  0.75470863  0.93248111  0.07651093     0.77360
O729        O  0.60373571  0.78892894  0.91057790    -0.58750
O730        O  0.58863887  0.71466866  0.94912174    -0.51870
C731        C  0.57623993  0.75117994  0.92090886     0.73890
Zr732      Zr  0.68370816  0.82383128  0.93044378     2.54710
O733        O  0.61803007  0.88731601  0.92904303    -0.79320
O734        O  0.69070124  0.82000875  0.84392865    -0.92730
Zr735      Zr  0.68377687  0.82369707  0.06990657     2.64680
O736        O  0.61996680  0.88926741  0.07205733    -0.97690
O737        O  0.69144664  0.81853028  0.15631108    -0.79750
O738        O  0.71880981  0.85818636  0.00015887    -0.83110
O739        O  0.64870096  0.78932538  0.00016036    -2.17820
O740        O  0.74801317  0.64457799  0.90584951    -0.66500
O741        O  0.67794083  0.62561575  0.94919236    -0.51060
C742        C  0.71252107  0.61519525  0.91815645     0.72270
O743        O  0.86599299  0.75343671  0.08795348    -0.59410
O744        O  0.88171069  0.82839959  0.05115831    -0.51380
C745        C  0.89382004  0.79110182  0.07869144     0.74080
O746        O  0.74917704  0.64384218  0.09309922    -0.70800
O747        O  0.67787331  0.62581321  0.05117524    -0.49480
C748        C  0.71302402  0.61494681  0.08151850     0.75460
O749        O  0.86558865  0.75413173  0.91120900    -0.66130
O750        O  0.88176012  0.82846525  0.94894561    -0.53330
C751        C  0.89362709  0.79151906  0.92090598     0.73840
Zr752      Zr  0.78469681  0.72219686  0.92985349     2.77540
O753        O  0.84840701  0.65649815  0.92889164    -0.96880
O754        O  0.78100362  0.73205819  0.84360434    -0.77700
Zr755      Zr  0.78468173  0.72216077  0.06996535     2.70070
O756        O  0.84633307  0.65482257  0.07228837    -0.78950
O757        O  0.78058161  0.73264083  0.15612413    -0.98030
Zr758      Zr  0.80711255  0.84405210  0.00002830     2.21500
Zr759      Zr  0.66308067  0.70057433  0.99998714     2.11130
O760        O  0.75136799  0.68657891  0.99989644    -2.46720
O761        O  0.82020760  0.75574849  0.99993271    -0.78740
O762        O  0.69729407  0.73612828  0.92830559    -0.70940
O763        O  0.77132485  0.80967088  0.07161953    -2.31890
O764        O  0.77123373  0.80973034  0.92847195    -2.28100
O765        O  0.69731884  0.73596894  0.07171216    -0.72690
H766        H  0.61331417  0.79685474  0.00017678     0.79300
H767        H  0.78622472  0.82443497  0.09971079     0.80390
H768        H  0.75891225  0.65114410  0.99989879     0.82610
H769        H  0.78608225  0.82460005  0.90040709     0.80220
H770        H  0.71889327  0.84197914  0.16449852     0.43260
H771        H  0.74596924  0.72279265  0.16472823     0.42230
H772        H  0.85960772  0.65316948  0.03934628     0.41910
H773        H  0.83484986  0.62909314  0.94894043     0.39840
H774        H  0.74544218  0.72597553  0.83535189     0.42970
H775        H  0.72133842  0.83932680  0.83625729     0.37750
H776        H  0.61945892  0.90298309  0.96103870     0.43870
H777        H  0.59326645  0.87782416  0.05007763     0.40290
H778        H  0.84789323  0.64299605  0.89599348     0.45210
H779        H  0.66285824  0.84132334  0.83224181     0.43930
H780        H  0.60488902  0.88703014  0.10425647     0.44060
H781        H  0.80185274  0.70529706  0.16891692     0.44420
C782        C  0.94260678  0.78797846  0.10301055     0.03970
C783        C  0.94235120  0.78460441  0.15309969    -0.12180
C784        C  0.98382306  0.76537840  0.17759201     0.01470
C785        C  0.52596661  0.74941543  0.15231531    -0.10700
C786        C  0.52718075  0.75241997  0.10245948     0.03970
C787        C  0.98539681  0.77190594  0.07789449    -0.10120
H788        H  0.90885129  0.79473417  0.17281806     0.09560
H789        H  0.55887752  0.73665521  0.17158274     0.07090
H790        H  0.98609562  0.77428019  0.03951938     0.06940
C791        C  0.74236589  0.52236067  0.82265472     0.03970
C792        C  0.75820724  0.98129777  0.84970008    -0.12180
C793        C  0.75306958  0.98143266  0.89946602     0.01470
C794        C  0.73165972  0.52358913  0.92204307    -0.10700
C795        C  0.71650684  0.56564182  0.89517932     0.03970
C796        C  0.72174045  0.56432581  0.84527477    -0.10120
H797        H  0.77215459  0.94799215  0.83180358     0.09560
H798        H  0.72750096  0.52394402  0.96029055     0.07090
H799        H  0.71185986  0.59705170  0.82424890     0.06940
C800        C  0.94247412  0.78835437  0.89667537     0.03970
C801        C  0.98527186  0.77258024  0.92196049    -0.12180
C802        C  0.52710759  0.75293182  0.89759308     0.01470
C803        C  0.52599131  0.74958958  0.84775436    -0.10700
C804        C  0.98388026  0.76535620  0.82230126     0.03970
C805        C  0.94233119  0.78466273  0.84660426    -0.10120
H806        H  0.98591903  0.77528205  0.96031661     0.09560
H807        H  0.55895649  0.73675136  0.82862690     0.07090
H808        H  0.90886273  0.79463426  0.82675813     0.06940
C809        C  0.98682673  0.75968704  0.72823542    -0.12430
C810        C  0.98398145  0.76205348  0.77107933    -0.13990
C811        C  0.74858856  0.51805969  0.72861056    -0.12430
C812        C  0.74643756  0.52084174  0.77148033    -0.13990
C813        C  0.74854848  0.51821659  0.27145288    -0.12430
C814        C  0.74635729  0.52102302  0.22858252    -0.13990
C815        C  0.98381055  0.76229096  0.22882283    -0.12430
C816        C  0.98662135  0.75996563  0.27166957    -0.13990
loop_ 
_geom_bond_atom_site_label_1 
_geom_bond_atom_site_label_2 
_geom_bond_distance 
_geom_bond_site_symmetry_2 
_ccdc_geom_bond_type 
O1          Zr13   2.388       .  S
O1          C207   1.277       .  A
O2          Zr39   2.479       .  S
O2            C3   1.298       .  A
C3          O205   1.277   1_545  A
C3           C76   1.469       .  S
O4          Zr16   2.387       .  S
O4          C414   1.277       .  A
O5          Zr40   2.481       .  S
O5            C6   1.297       .  A
C6          O412   1.277   1_455  A
C6          C500   1.470       .  S
O7          Zr16   2.388       .  S
O7          C213   1.277       .  A
O8          Zr39   2.479       .  S
O8            C9   1.297       .  A
C9          O211   1.277   1_545  A
C9           C83   1.468       .  S
O10         Zr13   2.384       .  S
O10         C420   1.277       .  A
O11         Zr40   2.483       .  S
O11          C12   1.298       .  A
C12         O418   1.277   1_455  A
C12         C473   1.470       .  S
Zr13         O14   2.434       .  S
Zr13         O15   2.435       .  S
Zr13         O19   2.353       .  S
Zr13         O20   2.356       .  S
Zr13        O451   2.364       .  S
Zr13        O249   2.362       .  S
O14          H57   0.990       .  S
O15          H56   0.990       .  S
O15          H60   0.990       .  S
Zr16         O17   2.439       .  S
Zr16         O18   2.435       .  S
Zr16         O20   2.356       .  S
Zr16         O19   2.354       .  S
Zr16        O248   2.362       .  S
Zr16        O454   2.365       .  S
O17          H58   0.990       .  S
O17          H61   0.990       .  S
O18          H51   0.990       .  S
O19        Zr243   2.380       .  S
O20        Zr448   2.393       .  S
O20          H47   0.965       .  S
O21         Zr33   2.389       .  S
O21         C227   1.277   1_545  A
O22         Zr40   2.483       .  S
O22          C23   1.298       .  A
C23         O225   1.277       .  A
C23         C278   1.472       .  S
O24         Zr36   2.387       .  S
O24         C434   1.277   1_455  A
O25         Zr39   2.478       .  S
O25          C26   1.297       .  A
C26         O432   1.277       .  A
C26          C90   1.468       .  S
O27         Zr36   2.386       .  S
O27         C233   1.277   1_545  A
O28         Zr40   2.484       .  S
O28          C29   1.298       .  A
C29         O231   1.277       .  A
C29         C289   1.471       .  S
O30         Zr33   2.387       .  S
O30         C440   1.277   1_455  A
O31         Zr39   2.479       .  S
O31          C32   1.297       .  A
C32         O438   1.277       .  A
C32          C63   1.468       .  S
Zr33         O34   2.439       .  S
Zr33         O35   2.434       .  S
Zr33         O41   2.356       .  S
Zr33         O42   2.356       .  S
Zr33        O453   2.361   1_455  S
Zr33        O247   2.364   1_545  S
O34          H54   0.990       .  S
O34          H59   0.990       .  S
O35          H55   0.990       .  S
Zr36         O37   2.434       .  S
Zr36         O38   2.434       .  S
Zr36         O42   2.355       .  S
Zr36         O41   2.357       .  S
Zr36        O250   2.362   1_545  S
Zr36        O452   2.361   1_455  S
O37          H53   0.990       .  S
O38          H52   0.990       .  S
O38          H62   0.990       .  S
Zr39         O44   2.403       .  S
Zr39         O45   2.403       .  S
Zr39        O223   2.380   1_545  S
Zr39        O450   2.381       .  S
Zr40         O43   2.404       .  S
Zr40         O46   2.404       .  S
Zr40        O428   2.393   1_455  S
Zr40        O245   2.391       .  S
O41        Zr244   2.391   1_545  S
O41          H49   0.965       .  S
O42        Zr447   2.381   1_455  S
O43        Zr421   2.364   1_455  S
O43        Zr237   2.364       .  S
O44        Zr220   2.362   1_545  S
O44        Zr444   2.361       .  S
O44          H48   0.966       .  S
O45        Zr217   2.362   1_545  S
O45        Zr441   2.361       .  S
O45          H50   0.966       .  S
O46        Zr424   2.365   1_455  S
O46        Zr240   2.362       .  S
C63          C68   1.404       .  A
C63         C472   1.409       .  A
C64         C471   1.409   1_455  A
C64         C473   1.408       .  A
C64          H69   1.078       .  S
C65         C420   1.470       .  S
C65          C66   1.404       .  A
C65         C472   1.408       .  A
C66          C67   1.397       .  A
C66          H70   1.085       .  S
C67          C68   1.397       .  A
C67         C204   1.439       .  S
C68          H71   1.085       .  S
C72          C73   1.397   1_545  A
C72          C77   1.397       .  A
C72         C201   1.440       .  S
C73          C74   1.405       .  A
C73          H78   1.085       .  S
C74         C227   1.472       .  S
C74          C75   1.409   1_565  A
C75          C76   1.410       .  A
C75          H79   1.078       .  S
C76          C77   1.404       .  A
C77          H80   1.085       .  S
C81          C82   1.397       .  A
C81          C86   1.397   1_545  A
C81         C199   1.440       .  S
C82          C83   1.404       .  A
C82          H87   1.085       .  S
C83          C84   1.410       .  A
C84          C85   1.408   1_545  A
C84          H88   1.078       .  S
C85         C233   1.471       .  S
C85          C86   1.405       .  A
C86          H89   1.085       .  S
C90          C91   1.409       .  A
C90          C95   1.404       .  A
C91          C92   1.408       .  A
C91         H504   1.078       .  S
C92         C414   1.470       .  S
C92          C93   1.404       .  A
C93          C94   1.396       .  A
C93          H97   1.085       .  S
C94          C95   1.398       .  A
C94         C197   1.439       .  S
C95          H98   1.085       .  S
H96         C499   1.078       .  S
C99         C104   1.398       .  A
C99         C304   1.396   1_545  A
C99         C202   1.440       .  S
C100        C101   1.402       .  A
C100        C303   1.396       .  A
C100        H105   1.085       .  S
C101        C116   1.467       .  S
C101        C306   1.409       .  A
C102        C103   1.409       .  A
C102        C305   1.409   1_545  A
C102        H106   1.078       .  S
C103        C136   1.472       .  S
C103        C104   1.407       .  A
C104        H107   1.085       .  S
O108       Zr120   2.391       .  S
O108        C110   1.278       .  A
O109       Zr146   2.477   1_556  S
O109        C110   1.297       .  A
C110        C181   1.468       .  S
O111       Zr123   2.397       .  S
O111        C113   1.279       .  A
O112       Zr147   2.471   1_554  S
O112        C113   1.296       .  A
C113        C174   1.465       .  S
O114       Zr123   2.390       .  S
O114        C116   1.277       .  A
O115       Zr146   2.477       .  S
O115        C116   1.297       .  A
O117       Zr120   2.394       .  S
O117        C119   1.279       .  A
O118       Zr147   2.473       .  S
O118        C119   1.296       .  A
C119        C190   1.465       .  S
Zr120       O121   2.435       .  S
Zr120       O122   2.435       .  S
Zr120       O126   2.353   1_556  S
Zr120       O127   2.354   1_556  S
Zr120       O150   2.365       .  S
Zr120       O152   2.365       .  S
O121        H164   0.990       .  S
O122        H163   0.990       .  S
O122        H167   0.990       .  S
Zr123       O124   2.439       .  S
Zr123       O125   2.435       .  S
Zr123       O127   2.354       .  S
Zr123       O126   2.355       .  S
Zr123       O151   2.365       .  S
Zr123       O153   2.366       .  S
O124        H165   0.990       .  S
O124        H168   0.990       .  S
O125        H158   0.990       .  S
O126       Zr146   2.385       .  S
O127       Zr147   2.396   1_554  S
O127        H154   0.965       .  S
O128       Zr140   2.386       .  S
O128        C130   1.277       .  A
O129       Zr147   2.485       .  S
O129        C130   1.298       .  A
C130        C183   1.473       .  S
O131       Zr143   2.379       .  S
O131        C133   1.276       .  A
O132       Zr146   2.487       .  S
O132        C133   1.299       .  A
C133        C170   1.471       .  S
O134       Zr143   2.383       .  S
O134        C136   1.277       .  A
O135       Zr147   2.486   1_554  S
O135        C136   1.299       .  A
O137       Zr140   2.379       .  S
O137        C139   1.276       .  A
O138       Zr146   2.488   1_556  S
O138        C139   1.299       .  A
C139        C188   1.472       .  S
Zr140       O141   2.439       .  S
Zr140       O142   2.434       .  S
Zr140       O148   2.356       .  S
Zr140       O149   2.358       .  S
Zr140       O152   2.360       .  S
Zr140       O150   2.361       .  S
O141        H161   0.990       .  S
O141        H166   0.990       .  S
O142        H162   0.990       .  S
Zr143       O144   2.434       .  S
Zr143       O145   2.434       .  S
Zr143       O149   2.357   1_554  S
Zr143       O148   2.356   1_554  S
Zr143       O153   2.360       .  S
Zr143       O151   2.359       .  S
O144        H160   0.990       .  S
O145        H159   0.990       .  S
O145        H169   0.990       .  S
Zr146       O149   2.379   1_554  S
Zr146       O151   2.405       .  S
Zr146       O152   2.404   1_554  S
Zr147       O148   2.384       .  S
Zr147       O150   2.402       .  S
Zr147       O153   2.402   1_556  S
O148        H156   0.965       .  S
O151        H155   0.966       .  S
O152        H157   0.966       .  S
C170        C171   1.407       .  A
C170        C175   1.408       .  A
C171        C172   1.399       .  A
C171        H176   1.085       .  S
C172        C581   1.395       .  A
C172        C203   1.439       .  S
C173        C174   1.401       .  A
C173        C580   1.395   1_455  A
C173        H177   1.085       .  S
C174        C583   1.409   1_455  A
C175        C582   1.409       .  A
C175        H178   1.078       .  S
C179        C184   1.398       .  A
C179        C384   1.396   1_545  A
C179        C200   1.440       .  S
C180        C181   1.402       .  A
C180        C383   1.396       .  A
C180        H185   1.085       .  S
C181        C386   1.410       .  A
C182        C183   1.409       .  A
C182        C385   1.410   1_545  A
C182        H186   1.078       .  S
C183        C184   1.407       .  A
C184        H187   1.085       .  S
C188        C189   1.408       .  A
C188        C193   1.407       .  A
C189        C598   1.409       .  A
C189        H194   1.078       .  S
C190        C191   1.401       .  A
C190        C597   1.409   1_455  A
C191        C600   1.395   1_455  A
C191        H195   1.085       .  S
C192        C193   1.399       .  A
C192        C599   1.395       .  A
C192        C198   1.439       .  S
C193        H196   1.085       .  S
C197        C198   1.205       .  T
C199        C200   1.206       .  T
C201        C202   1.206       .  T
C203        C204   1.205       .  T
O205       Zr217   2.388       .  S
O206       Zr243   2.479       .  S
O206        C207   1.298       .  A
C207        C280   1.469       .  S
O208       Zr220   2.387       .  S
O208        C618   1.277       .  A
O209       Zr244   2.481       .  S
O209        C210   1.297       .  A
C210        O616   1.277   1_455  A
C210        C704   1.470       .  S
O211       Zr220   2.388       .  S
O212       Zr243   2.479       .  S
O212        C213   1.297       .  A
C213        C287   1.468       .  S
O214       Zr217   2.384       .  S
O214        C624   1.277       .  A
O215       Zr244   2.483       .  S
O215        C216   1.298       .  A
C216        O622   1.277   1_455  A
C216        C677   1.470       .  S
Zr217       O218   2.434       .  S
Zr217       O219   2.435       .  S
Zr217       O223   2.353       .  S
Zr217       O224   2.356       .  S
Zr217       O655   2.364       .  S
O218        H261   0.990       .  S
O219        H260   0.990       .  S
O219        H264   0.990       .  S
Zr220       O221   2.439       .  S
Zr220       O222   2.435       .  S
Zr220       O224   2.356       .  S
Zr220       O223   2.354       .  S
Zr220       O658   2.365       .  S
O221        H262   0.990       .  S
O221        H265   0.990       .  S
O222        H255   0.990       .  S
O224       Zr652   2.393       .  S
O224        H251   0.965       .  S
O225       Zr237   2.389       .  S
O226       Zr244   2.483       .  S
O226        C227   1.298       .  A
O228       Zr240   2.387       .  S
O228        C638   1.277   1_455  A
O229       Zr243   2.478       .  S
O229        C230   1.297       .  A
C230        O636   1.277       .  A
C230        C294   1.468       .  S
O231       Zr240   2.386       .  S
O232       Zr244   2.484       .  S
O232        C233   1.298       .  A
O234       Zr237   2.387       .  S
O234        C644   1.277   1_455  A
O235       Zr243   2.479       .  S
O235        C236   1.297       .  A
C236        O642   1.277       .  A
C236        C267   1.468       .  S
Zr237       O238   2.439       .  S
Zr237       O239   2.434       .  S
Zr237       O245   2.356       .  S
Zr237       O246   2.356       .  S
Zr237       O657   2.361   1_455  S
O238        H258   0.990       .  S
O238        H263   0.990       .  S
O239        H259   0.990       .  S
Zr240       O241   2.434       .  S
Zr240       O242   2.434       .  S
Zr240       O246   2.355       .  S
Zr240       O245   2.357       .  S
Zr240       O656   2.361   1_455  S
O241        H257   0.990       .  S
O242        H256   0.990       .  S
O242        H266   0.990       .  S
Zr243       O654   2.381       .  S
Zr243       O248   2.403       .  S
Zr243       O249   2.403       .  S
Zr244       O632   2.393   1_455  S
Zr244       O247   2.404       .  S
Zr244       O250   2.404       .  S
O245        H253   0.965       .  S
O246       Zr651   2.381   1_455  S
O247       Zr625   2.364   1_455  S
O248       Zr648   2.361       .  S
O248        H252   0.966       .  S
O249       Zr645   2.361       .  S
O249        H254   0.966       .  S
O250       Zr628   2.365   1_455  S
C267        C676   1.409       .  A
C267        C272   1.404       .  A
C268        C675   1.409   1_455  A
C268        C677   1.408       .  A
C268        H273   1.078       .  S
C269        C624   1.470       .  S
C269        C676   1.408       .  A
C269        C270   1.404       .  A
C270        C271   1.397       .  A
C270        H274   1.085       .  S
C271        C272   1.397       .  A
C271        C408   1.439       .  S
C272        H275   1.085       .  S
C276        C277   1.397       .  A
C276        C281   1.397       .  A
C276        C405   1.440       .  S
C277        C278   1.405       .  A
C277        H282   1.085       .  S
C278        C279   1.409       .  A
C279        C280   1.410       .  A
C279        H283   1.078       .  S
C280        C281   1.404       .  A
C281        H284   1.085       .  S
C285        C286   1.397       .  A
C285        C290   1.397       .  A
C285        C403   1.440       .  S
C286        C287   1.404       .  A
C286        H291   1.085       .  S
C287        C288   1.410       .  A
C288        C289   1.408       .  A
C288        H292   1.078       .  S
C289        C290   1.405       .  A
C290        H293   1.085       .  S
C294        C295   1.409       .  A
C294        C299   1.404       .  A
C295        C296   1.408       .  A
C295        H708   1.078       .  S
C296        C618   1.470       .  S
C296        C297   1.404       .  A
C297        C298   1.396       .  A
C297        H301   1.085       .  S
C298        C299   1.398       .  A
C298        C401   1.439       .  S
C299        H302   1.085       .  S
H300        C703   1.078       .  S
C303        C308   1.398       .  A
C303        C406   1.440       .  S
C304        C305   1.402       .  A
C304        H309   1.085       .  S
C305        C320   1.467       .  S
C306        C307   1.409       .  A
C306        H310   1.078       .  S
C307        C340   1.472       .  S
C307        C308   1.407       .  A
C308        H311   1.085       .  S
O312       Zr324   2.391       .  S
O312        C314   1.278       .  A
O313       Zr350   2.477   1_556  S
O313        C314   1.297       .  A
C314        C385   1.468       .  S
O315       Zr327   2.397       .  S
O315        C317   1.279       .  A
O316       Zr351   2.471   1_554  S
O316        C317   1.296       .  A
C317        C378   1.465       .  S
O318       Zr327   2.390       .  S
O318        C320   1.277       .  A
O319       Zr350   2.477       .  S
O319        C320   1.297       .  A
O321       Zr324   2.394       .  S
O321        C323   1.279       .  A
O322       Zr351   2.473       .  S
O322        C323   1.296       .  A
C323        C394   1.465       .  S
Zr324       O325   2.435       .  S
Zr324       O326   2.435       .  S
Zr324       O330   2.353   1_556  S
Zr324       O331   2.354   1_556  S
Zr324       O354   2.365       .  S
Zr324       O356   2.365       .  S
O325        H368   0.990       .  S
O326        H367   0.990       .  S
O326        H371   0.990       .  S
Zr327       O328   2.439       .  S
Zr327       O329   2.435       .  S
Zr327       O331   2.354       .  S
Zr327       O330   2.355       .  S
Zr327       O355   2.365       .  S
Zr327       O357   2.366       .  S
O328        H369   0.990       .  S
O328        H372   0.990       .  S
O329        H362   0.990       .  S
O330       Zr350   2.385       .  S
O331       Zr351   2.396   1_554  S
O331        H358   0.965       .  S
O332       Zr344   2.386       .  S
O332        C334   1.277       .  A
O333       Zr351   2.485       .  S
O333        C334   1.298       .  A
C334        C387   1.473       .  S
O335       Zr347   2.379       .  S
O335        C337   1.276       .  A
O336       Zr350   2.487       .  S
O336        C337   1.299       .  A
C337        C374   1.471       .  S
O338       Zr347   2.383       .  S
O338        C340   1.277       .  A
O339       Zr351   2.486   1_554  S
O339        C340   1.299       .  A
O341       Zr344   2.379       .  S
O341        C343   1.276       .  A
O342       Zr350   2.488   1_556  S
O342        C343   1.299       .  A
C343        C392   1.472       .  S
Zr344       O345   2.439       .  S
Zr344       O346   2.434       .  S
Zr344       O352   2.356       .  S
Zr344       O353   2.358       .  S
Zr344       O356   2.360       .  S
Zr344       O354   2.361       .  S
O345        H365   0.990       .  S
O345        H370   0.990       .  S
O346        H366   0.990       .  S
Zr347       O348   2.434       .  S
Zr347       O349   2.434       .  S
Zr347       O353   2.357   1_554  S
Zr347       O352   2.356   1_554  S
Zr347       O357   2.360       .  S
Zr347       O355   2.359       .  S
O348        H364   0.990       .  S
O349        H363   0.990       .  S
O349        H373   0.990       .  S
Zr350       O353   2.379   1_554  S
Zr350       O355   2.405       .  S
Zr350       O356   2.404   1_554  S
Zr351       O352   2.384       .  S
Zr351       O354   2.402       .  S
Zr351       O357   2.402   1_556  S
O352        H360   0.965       .  S
O355        H359   0.966       .  S
O356        H361   0.966       .  S
C374        C375   1.407       .  A
C374        C379   1.408       .  A
C375        C376   1.399       .  A
C375        H380   1.085       .  S
C376        C785   1.395       .  A
C376        C407   1.439       .  S
C377        C784   1.395   1_455  A
C377        C378   1.401       .  A
C377        H381   1.085       .  S
C378        C787   1.409   1_455  A
C379        C786   1.409       .  A
C379        H382   1.078       .  S
C383        C388   1.398       .  A
C383        C404   1.440       .  S
C384        C385   1.402       .  A
C384        H389   1.085       .  S
C386        C387   1.409       .  A
C386        H390   1.078       .  S
C387        C388   1.407       .  A
C388        H391   1.085       .  S
C392        C393   1.408       .  A
C392        C397   1.407       .  A
C393        C802   1.409       .  A
C393        H398   1.078       .  S
C394        C801   1.409   1_455  A
C394        C395   1.401       .  A
C395        C804   1.395   1_455  A
C395        H399   1.085       .  S
C396        C803   1.395       .  A
C396        C397   1.399       .  A
C396        C402   1.439       .  S
C397        H400   1.085       .  S
C401        C402   1.205       .  T
C403        C404   1.206       .  T
C405        C406   1.206       .  T
C407        C408   1.205       .  T
O409       Zr421   2.388       .  S
O409        C615   1.277       .  A
O410       Zr447   2.479       .  S
O410        C411   1.298       .  A
C411        O613   1.277   1_545  A
C411        C484   1.469       .  S
O412       Zr424   2.387       .  S
O413       Zr448   2.481       .  S
O413        C414   1.297       .  A
O415       Zr424   2.388       .  S
O415        C621   1.277       .  A
O416       Zr447   2.479       .  S
O416        C417   1.297       .  A
C417        O619   1.277   1_545  A
C417        C491   1.468       .  S
O418       Zr421   2.384       .  S
O419       Zr448   2.483       .  S
O419        C420   1.298       .  A
Zr421       O422   2.434       .  S
Zr421       O423   2.435       .  S
Zr421       O427   2.353       .  S
Zr421       O428   2.356       .  S
Zr421       O657   2.362       .  S
O422        H465   0.990       .  S
O423        H464   0.990       .  S
O423        H468   0.990       .  S
Zr424       O425   2.439       .  S
Zr424       O426   2.435       .  S
Zr424       O428   2.356       .  S
Zr424       O427   2.354       .  S
Zr424       O656   2.362       .  S
O425        H466   0.990       .  S
O425        H469   0.990       .  S
O426        H459   0.990       .  S
O427       Zr651   2.380       .  S
O428        H455   0.965       .  S
O429       Zr441   2.389       .  S
O429        C635   1.277   1_545  A
O430       Zr448   2.483       .  S
O430        C431   1.298       .  A
C431        O633   1.277       .  A
C431        C686   1.472       .  S
O432       Zr444   2.387       .  S
O433       Zr447   2.478       .  S
O433        C434   1.297       .  A
C434        C498   1.468       .  S
O435       Zr444   2.386       .  S
O435        C641   1.277   1_545  A
O436       Zr448   2.484       .  S
O436        C437   1.298       .  A
C437        O639   1.277       .  A
C437        C697   1.471       .  S
O438       Zr441   2.387       .  S
O439       Zr447   2.479       .  S
O439        C440   1.297       .  A
C440        C471   1.468       .  S
Zr441       O442   2.439       .  S
Zr441       O443   2.434       .  S
Zr441       O449   2.356       .  S
Zr441       O450   2.356       .  S
Zr441       O655   2.364   1_545  S
O442        H462   0.990       .  S
O442        H467   0.990       .  S
O443        H463   0.990       .  S
Zr444       O445   2.434       .  S
Zr444       O446   2.434       .  S
Zr444       O450   2.355       .  S
Zr444       O449   2.357       .  S
Zr444       O658   2.362   1_545  S
O445        H461   0.990       .  S
O446        H460   0.990       .  S
O446        H470   0.990       .  S
Zr447       O631   2.380   1_545  S
Zr447       O452   2.403       .  S
Zr447       O453   2.403       .  S
Zr448       O653   2.391       .  S
Zr448       O451   2.404       .  S
Zr448       O454   2.404       .  S
O449       Zr652   2.391   1_545  S
O449        H457   0.965       .  S
O451       Zr645   2.364       .  S
O452       Zr628   2.362   1_545  S
O452        H456   0.966       .  S
O453       Zr625   2.362   1_545  S
O453        H458   0.966       .  S
O454       Zr648   2.362       .  S
C471        C476   1.404       .  A
C472        H477   1.078       .  S
C473        C474   1.404       .  A
C474        C475   1.397   1_455  A
C474        H478   1.085       .  S
C475        C476   1.397       .  A
C475        C612   1.439       .  S
C476        H479   1.085       .  S
C480        C481   1.397   1_545  A
C480        C485   1.397       .  A
C480        C609   1.440       .  S
C481        C482   1.405       .  A
C481        H486   1.085       .  S
C482        C635   1.472       .  S
C482        C483   1.409   1_565  A
C483        C484   1.410       .  A
C483        H487   1.078       .  S
C484        C485   1.404       .  A
C485        H488   1.085       .  S
C489        C490   1.397       .  A
C489        C494   1.397   1_545  A
C489        C607   1.440       .  S
C490        C491   1.404       .  A
C490        H495   1.085       .  S
C491        C492   1.410       .  A
C492        C493   1.408   1_545  A
C492        H496   1.078       .  S
C493        C641   1.471       .  S
C493        C494   1.405       .  A
C494        H497   1.085       .  S
C498        C499   1.409   1_655  A
C498        C503   1.404       .  A
C499        C500   1.408       .  A
C500        C501   1.404       .  A
C501        C502   1.396   1_455  A
C501        H505   1.085       .  S
C502        C503   1.398       .  A
C502        C605   1.439       .  S
C503        H506   1.085       .  S
C507        C712   1.396   1_545  A
C507        C512   1.398       .  A
C507        C610   1.440       .  S
C508        C711   1.396       .  A
C508        C509   1.402       .  A
C508        H513   1.085       .  S
C509        C524   1.467       .  S
C509        C714   1.409       .  A
C510        C713   1.409   1_545  A
C510        C511   1.409       .  A
C510        H514   1.078       .  S
C511        C544   1.472       .  S
C511        C512   1.407       .  A
C512        H515   1.085       .  S
O516       Zr528   2.391       .  S
O516        C518   1.278       .  A
O517       Zr554   2.477   1_556  S
O517        C518   1.297       .  A
C518        C589   1.468       .  S
O519       Zr531   2.397       .  S
O519        C521   1.279       .  A
O520       Zr555   2.471   1_554  S
O520        C521   1.296       .  A
C521        C582   1.465       .  S
O522       Zr531   2.390       .  S
O522        C524   1.277       .  A
O523       Zr554   2.477       .  S
O523        C524   1.297       .  A
O525       Zr528   2.394       .  S
O525        C527   1.279       .  A
O526       Zr555   2.473       .  S
O526        C527   1.296       .  A
C527        C598   1.465       .  S
Zr528       O529   2.435       .  S
Zr528       O530   2.435       .  S
Zr528       O534   2.353   1_556  S
Zr528       O535   2.354   1_556  S
Zr528       O558   2.365       .  S
Zr528       O560   2.365       .  S
O529        H572   0.990       .  S
O530        H571   0.990       .  S
O530        H575   0.990       .  S
Zr531       O532   2.439       .  S
Zr531       O533   2.435       .  S
Zr531       O535   2.354       .  S
Zr531       O534   2.355       .  S
Zr531       O559   2.365       .  S
Zr531       O561   2.366       .  S
O532        H573   0.990       .  S
O532        H576   0.990       .  S
O533        H566   0.990       .  S
O534       Zr554   2.385       .  S
O535       Zr555   2.396   1_554  S
O535        H562   0.965       .  S
O536       Zr548   2.386       .  S
O536        C538   1.277       .  A
O537       Zr555   2.485       .  S
O537        C538   1.298       .  A
C538        C591   1.473       .  S
O539       Zr551   2.379       .  S
O539        C541   1.276       .  A
O540       Zr554   2.487       .  S
O540        C541   1.299       .  A
C541        C578   1.471       .  S
O542       Zr551   2.383       .  S
O542        C544   1.277       .  A
O543       Zr555   2.486   1_554  S
O543        C544   1.299       .  A
O545       Zr548   2.379       .  S
O545        C547   1.276       .  A
O546       Zr554   2.488   1_556  S
O546        C547   1.299       .  A
C547        C596   1.472       .  S
Zr548       O549   2.439       .  S
Zr548       O550   2.434       .  S
Zr548       O556   2.356       .  S
Zr548       O557   2.358       .  S
Zr548       O560   2.360       .  S
Zr548       O558   2.361       .  S
O549        H569   0.990       .  S
O549        H574   0.990       .  S
O550        H570   0.990       .  S
Zr551       O552   2.434       .  S
Zr551       O553   2.434       .  S
Zr551       O557   2.357   1_554  S
Zr551       O556   2.356   1_554  S
Zr551       O561   2.360       .  S
Zr551       O559   2.359       .  S
O552        H568   0.990       .  S
O553        H567   0.990       .  S
O553        H577   0.990       .  S
Zr554       O557   2.379   1_554  S
Zr554       O559   2.405       .  S
Zr554       O560   2.404   1_554  S
Zr555       O556   2.384       .  S
Zr555       O558   2.402       .  S
Zr555       O561   2.402   1_556  S
O556        H564   0.965       .  S
O559        H563   0.966       .  S
O560        H565   0.966       .  S
C578        C579   1.407       .  A
C578        C583   1.408       .  A
C579        C580   1.399       .  A
C579        H584   1.085       .  S
C580        C611   1.439       .  S
C581        C582   1.401       .  A
C581        H585   1.085       .  S
C583        H586   1.078       .  S
C587        C792   1.396   1_545  A
C587        C592   1.398       .  A
C587        C608   1.440       .  S
C588        C791   1.396       .  A
C588        C589   1.402       .  A
C588        H593   1.085       .  S
C589        C794   1.410       .  A
C590        C793   1.410   1_545  A
C590        C591   1.409       .  A
C590        H594   1.078       .  S
C591        C592   1.407       .  A
C592        H595   1.085       .  S
C596        C597   1.408       .  A
C596        C601   1.407       .  A
C597        H602   1.078       .  S
C598        C599   1.401       .  A
C599        H603   1.085       .  S
C600        C601   1.399       .  A
C600        C606   1.439       .  S
C601        H604   1.085       .  S
C605        C606   1.205       .  T
C607        C608   1.206       .  T
C609        C610   1.206       .  T
C611        C612   1.205       .  T
O613       Zr625   2.388       .  S
O614       Zr651   2.479       .  S
O614        C615   1.298       .  A
C615        C688   1.469       .  S
O616       Zr628   2.387       .  S
O617       Zr652   2.481       .  S
O617        C618   1.297       .  A
O619       Zr628   2.388       .  S
O620       Zr651   2.479       .  S
O620        C621   1.297       .  A
C621        C695   1.468       .  S
O622       Zr625   2.384       .  S
O623       Zr652   2.483       .  S
O623        C624   1.298       .  A
Zr625       O626   2.434       .  S
Zr625       O627   2.435       .  S
Zr625       O631   2.353       .  S
Zr625       O632   2.356       .  S
O626        H669   0.990       .  S
O627        H668   0.990       .  S
O627        H672   0.990       .  S
Zr628       O629   2.439       .  S
Zr628       O630   2.435       .  S
Zr628       O632   2.356       .  S
Zr628       O631   2.354       .  S
O629        H670   0.990       .  S
O629        H673   0.990       .  S
O630        H663   0.990       .  S
O632        H659   0.965       .  S
O633       Zr645   2.389       .  S
O634       Zr652   2.483       .  S
O634        C635   1.298       .  A
O636       Zr648   2.387       .  S
O637       Zr651   2.478       .  S
O637        C638   1.297       .  A
C638        C702   1.468       .  S
O639       Zr648   2.386       .  S
O640       Zr652   2.484       .  S
O640        C641   1.298       .  A
O642       Zr645   2.387       .  S
O643       Zr651   2.479       .  S
O643        C644   1.297       .  A
C644        C675   1.468       .  S
Zr645       O646   2.439       .  S
Zr645       O647   2.434       .  S
Zr645       O653   2.356       .  S
Zr645       O654   2.356       .  S
O646        H666   0.990       .  S
O646        H671   0.990       .  S
O647        H667   0.990       .  S
Zr648       O649   2.434       .  S
Zr648       O650   2.434       .  S
Zr648       O654   2.355       .  S
Zr648       O653   2.357       .  S
O649        H665   0.990       .  S
O650        H664   0.990       .  S
O650        H674   0.990       .  S
Zr651       O656   2.403       .  S
Zr651       O657   2.403       .  S
Zr652       O655   2.404       .  S
Zr652       O658   2.404       .  S
O653        H661   0.965       .  S
O656        H660   0.966       .  S
O657        H662   0.966       .  S
C675        C680   1.404       .  A
C676        H681   1.078       .  S
C677        C678   1.404       .  A
C678        C679   1.397   1_455  A
C678        H682   1.085       .  S
C679        C680   1.397       .  A
C679        C816   1.439       .  S
C680        H683   1.085       .  S
C684        C685   1.397       .  A
C684        C689   1.397       .  A
C684        C813   1.440       .  S
C685        C686   1.405       .  A
C685        H690   1.085       .  S
C686        C687   1.409       .  A
C687        C688   1.410       .  A
C687        H691   1.078       .  S
C688        C689   1.404       .  A
C689        H692   1.085       .  S
C693        C694   1.397       .  A
C693        C698   1.397       .  A
C693        C811   1.440       .  S
C694        C695   1.404       .  A
C694        H699   1.085       .  S
C695        C696   1.410       .  A
C696        C697   1.408       .  A
C696        H700   1.078       .  S
C697        C698   1.405       .  A
C698        H701   1.085       .  S
C702        C703   1.409   1_655  A
C702        C707   1.404       .  A
C703        C704   1.408       .  A
C704        C705   1.404       .  A
C705        C706   1.396   1_455  A
C705        H709   1.085       .  S
C706        C707   1.398       .  A
C706        C809   1.439       .  S
C707        H710   1.085       .  S
C711        C716   1.398       .  A
C711        C814   1.440       .  S
C712        C713   1.402       .  A
C712        H717   1.085       .  S
C713        C728   1.467       .  S
C714        C715   1.409       .  A
C714        H718   1.078       .  S
C715        C748   1.472       .  S
C715        C716   1.407       .  A
C716        H719   1.085       .  S
O720       Zr732   2.391       .  S
O720        C722   1.278       .  A
O721       Zr758   2.477   1_556  S
O721        C722   1.297       .  A
C722        C793   1.468       .  S
O723       Zr735   2.397       .  S
O723        C725   1.279       .  A
O724       Zr759   2.471   1_554  S
O724        C725   1.296       .  A
C725        C786   1.465       .  S
O726       Zr735   2.390       .  S
O726        C728   1.277       .  A
O727       Zr758   2.477       .  S
O727        C728   1.297       .  A
O729       Zr732   2.394       .  S
O729        C731   1.279       .  A
O730       Zr759   2.473       .  S
O730        C731   1.296       .  A
C731        C802   1.465       .  S
Zr732       O733   2.435       .  S
Zr732       O734   2.435       .  S
Zr732       O738   2.353   1_556  S
Zr732       O739   2.354   1_556  S
Zr732       O762   2.365       .  S
Zr732       O764   2.365       .  S
O733        H776   0.990       .  S
O734        H775   0.990       .  S
O734        H779   0.990       .  S
Zr735       O736   2.439       .  S
Zr735       O737   2.435       .  S
Zr735       O739   2.354       .  S
Zr735       O738   2.355       .  S
Zr735       O763   2.365       .  S
Zr735       O765   2.366       .  S
O736        H777   0.990       .  S
O736        H780   0.990       .  S
O737        H770   0.990       .  S
O738       Zr758   2.385       .  S
O739       Zr759   2.396   1_554  S
O739        H766   0.965       .  S
O740       Zr752   2.386       .  S
O740        C742   1.277       .  A
O741       Zr759   2.485       .  S
O741        C742   1.298       .  A
C742        C795   1.473       .  S
O743       Zr755   2.379       .  S
O743        C745   1.276       .  A
O744       Zr758   2.487       .  S
O744        C745   1.299       .  A
C745        C782   1.471       .  S
O746       Zr755   2.383       .  S
O746        C748   1.277       .  A
O747       Zr759   2.486   1_554  S
O747        C748   1.299       .  A
O749       Zr752   2.379       .  S
O749        C751   1.276       .  A
O750       Zr758   2.488   1_556  S
O750        C751   1.299       .  A
C751        C800   1.472       .  S
Zr752       O753   2.439       .  S
Zr752       O754   2.434       .  S
Zr752       O760   2.356       .  S
Zr752       O761   2.358       .  S
Zr752       O764   2.360       .  S
Zr752       O762   2.361       .  S
O753        H773   0.990       .  S
O753        H778   0.990       .  S
O754        H774   0.990       .  S
Zr755       O756   2.434       .  S
Zr755       O757   2.434       .  S
Zr755       O761   2.357   1_554  S
Zr755       O760   2.356   1_554  S
Zr755       O765   2.360       .  S
Zr755       O763   2.359       .  S
O756        H772   0.990       .  S
O757        H771   0.990       .  S
O757        H781   0.990       .  S
Zr758       O761   2.379   1_554  S
Zr758       O763   2.405       .  S
Zr758       O764   2.404   1_554  S
Zr759       O760   2.384       .  S
Zr759       O762   2.402       .  S
Zr759       O765   2.402   1_556  S
O760        H768   0.965       .  S
O763        H767   0.966       .  S
O764        H769   0.966       .  S
C782        C783   1.407       .  A
C782        C787   1.408       .  A
C783        C784   1.399       .  A
C783        H788   1.085       .  S
C784        C815   1.439       .  S
C785        C786   1.401       .  A
C785        H789   1.085       .  S
C787        H790   1.078       .  S
C791        C796   1.398       .  A
C791        C812   1.440       .  S
C792        C793   1.402       .  A
C792        H797   1.085       .  S
C794        C795   1.409       .  A
C794        H798   1.078       .  S
C795        C796   1.407       .  A
C796        H799   1.085       .  S
C800        C801   1.408       .  A
C800        C805   1.407       .  A
C801        H806   1.078       .  S
C802        C803   1.401       .  A
C803        H807   1.085       .  S
C804        C805   1.399       .  A
C804        C810   1.439       .  S
C805        H808   1.085       .  S
C809        C810   1.205       .  T
C811        C812   1.206       .  T
C813        C814   1.206       .  T
C815        C816   1.205       .  T
