geometry optimzed in LAMMPS
_audit_creation_date              2020-11-30 
_audit_creation_method            'lammps2cif' 
_symmetry_space_group_name_H-M    'P1' 
_symmetry_Int_Tables_number       1 
_symmetry_cell_setting            triclinic 
loop_ 
_symmetry_equiv_pos_as_xyz 
  x,y,z 
_cell_length_a                    31.08089624 
_cell_length_b                    40.0674448827202 
_cell_length_c                    30.993919666386535 
_cell_angle_alpha                 90.00469581923552 
_cell_angle_beta                  90.31357714755997 
_cell_angle_gamma                 90.0385788948276 
loop_ 
_atom_site_label 
_atom_site_type_symbol 
_atom_site_fract_x 
_atom_site_fract_y 
_atom_site_fract_z 
_atom_site_charge 
O1          O  0.40171982  0.45325303  0.57486112    -0.75300
O2          O  0.44525827  0.41467916  0.54293842    -0.54200
C3          C  0.41371309  0.42303256  0.56741824     0.78400
O4          O  0.41486106  0.56991574  0.40812123    -0.59900
O5          O  0.44695757  0.60835810  0.45219057    -0.52900
C6          C  0.42287562  0.60015246  0.42016371     0.70500
O7          O  0.40279550  0.45565768  0.41583485    -0.74400
O8          O  0.44429617  0.41619752  0.44931429    -0.55000
C9          C  0.41316939  0.42508370  0.42438082     0.76500
O10         O  0.41140085  0.56582771  0.58869381    -0.59600
O11         O  0.44202095  0.60575618  0.54621181    -0.52700
C12         C  0.41855256  0.59642137  0.57800411     0.73100
Zr13       Zr  0.42481947  0.51023518  0.55872803     2.54700
O14         O  0.34781652  0.51421387  0.54478761    -0.80200
O15         O  0.41150878  0.50671029  0.63596381    -0.93600
Zr16       Zr  0.42960899  0.51235200  0.43137048     2.64700
O17         O  0.35168088  0.51742222  0.42557395    -0.98500
O18         O  0.43782435  0.50925540  0.35334257    -0.80600
O19         O  0.42750208  0.47869619  0.49425952    -0.83900
O20         O  0.42592875  0.54405827  0.49603190    -2.18700
O21         O  0.57278344  0.56711597  0.58731549    -0.67300
O22         O  0.53255867  0.60674688  0.55277943    -0.51900
C23         C  0.56143718  0.59761107  0.58010741     0.71400
O24         O  0.57713074  0.45768775  0.41149384    -0.60200
O25         O  0.54001368  0.41723101  0.44707488    -0.52200
C26         C  0.56779625  0.42698798  0.41900507     0.73200
O27         O  0.58218038  0.56776386  0.42085202    -0.71600
O28         O  0.54053220  0.60684541  0.45424809    -0.50300
C29         C  0.57138455  0.59797269  0.42908386     0.74600
O30         O  0.57188383  0.45330316  0.58642033    -0.67000
O31         O  0.54104689  0.41471222  0.54169625    -0.54200
C32         C  0.56567574  0.42306992  0.57339298     0.73000
Zr33       Zr  0.55272529  0.51036014  0.56515347     2.77500
O34         O  0.63102102  0.50777949  0.56649184    -0.97700
O35         O  0.54955822  0.51212575  0.64356605    -0.78500
Zr36       Zr  0.55677413  0.51238139  0.43744141     2.70100
O37         O  0.63488069  0.50879863  0.44143506    -0.79800
O38         O  0.55512799  0.51906054  0.35935422    -0.98900
Zr39       Zr  0.49236803  0.44684901  0.49642511     2.21500
Zr40       Zr  0.49109933  0.57559383  0.50015789     2.11100
O41         O  0.55599915  0.54387362  0.50225151    -2.47600
O42         O  0.55663996  0.47893691  0.50039659    -0.79600
O43         O  0.48868978  0.54236164  0.56382493    -0.71800
O44         O  0.49331659  0.47978894  0.43231453    -2.32700
O45         O  0.48888385  0.47788791  0.56235973    -2.28900
O46         O  0.49327701  0.54487018  0.43456709    -0.73500
H47         H  0.40114018  0.55860565  0.49552790     0.78500
H48         H  0.49376415  0.46589428  0.40686577     0.79600
H49         H  0.58100638  0.55820053  0.50377177     0.81800
H50         H  0.48782247  0.46325720  0.58702614     0.79400
H51         H  0.44719657  0.53188313  0.34459754     0.42400
H52         H  0.58419437  0.51235403  0.34975927     0.41400
H53         H  0.64478682  0.51515751  0.41226031     0.41100
H54         H  0.63838036  0.49111792  0.54411924     0.39000
H55         H  0.51842776  0.51300984  0.65007848     0.42100
H56         H  0.42623969  0.48607964  0.64554609     0.36900
H57         H  0.34175536  0.49613295  0.52382818     0.43000
H58         H  0.34389401  0.53501463  0.44655893     0.39400
H59         H  0.64055088  0.52935558  0.55424870     0.44400
H60         H  0.38043510  0.50155962  0.63824375     0.43100
H61         H  0.34657133  0.52776420  0.39698608     0.43200
H62         H  0.53592424  0.50105276  0.34885588     0.43600
O63         O  0.90859782  0.44948295  0.90753510    -0.75300
O64         O  0.94587017  0.40934355  0.94402266    -0.54200
C65         C  0.91827648  0.41879091  0.91535189     0.78400
O66         O  0.07180158  0.56387327  0.90622120    -0.59900
O67         O  0.03904438  0.60257273  0.94905945    -0.52900
C68         C  0.06472506  0.59400173  0.91848216     0.70500
O69         O  0.07878568  0.45264966  0.90716282    -0.74400
O70         O  0.04215238  0.41211329  0.94378221    -0.55000
C71         C  0.07090615  0.42196202  0.91674921     0.76500
O72         O  0.90025243  0.56178046  0.91614425    -0.59600
O73         O  0.94021687  0.60182770  0.94993646    -0.52700
C74         C  0.90971188  0.59244612  0.92425453     0.73100
Zr75       Zr  0.92510275  0.50562783  0.93332667     2.54700
O76         O  0.92018093  0.50971359  0.85508155    -0.80200
O77         O  0.84718636  0.50060153  0.93947097    -0.93600
Zr78       Zr  0.05172916  0.50763149  0.92725496     2.64700
O79         O  0.04220146  0.50902317  0.84913207    -0.98500
O80         O  0.12964595  0.51235041  0.92355293    -0.80600
O81         O  0.98911690  0.47371298  0.92825746    -0.83900
O82         O  0.98762979  0.53946857  0.93022733    -2.18700
O83         O  0.90453515  0.55901859  0.07973942    -0.67300
O84         O  0.94365201  0.59956372  0.04580604    -0.51900
C85         C  0.91418805  0.58966130  0.07189383     0.71400
O86         O  0.07890988  0.44955889  0.07572401    -0.60200
O87         O  0.04028934  0.40940184  0.04047404    -0.52200
C88         C  0.06934635  0.41883992  0.06768195     0.73200
O89         O  0.07616682  0.56239775  0.07967556    -0.71600
O90         O  0.03830762  0.60251770  0.04376147    -0.50300
C91         C  0.06627355  0.59311534  0.07216096     0.74600
O92         O  0.91459057  0.44775905  0.08441691    -0.67000
O93         O  0.94649445  0.40905623  0.04092349    -0.54200
C94         C  0.92230844  0.41753245  0.07276308     0.73000
Zr95       Zr  0.93184437  0.50403194  0.06064625     2.77500
O96         O  0.94638222  0.50607039  0.13792047    -0.97700
O97         O  0.85415273  0.49936201  0.06796589    -0.78500
Zr98       Zr  0.05853005  0.50618139  0.05455469     2.70100
O99         O  0.06916384  0.50574629  0.13243848    -0.79800
O100        O  0.13594391  0.50795584  0.04300180    -0.98900
Zr101      Zr  0.99287706  0.44071912  0.99242321     2.21500
Zr102      Zr  0.99073457  0.57102389  0.99559710     2.11100
O103        O  0.99429772  0.53776707  0.05946583    -2.47600
O104        O  0.99597089  0.47233113  0.05761698    -0.79600
O105        O  0.92709167  0.53753874  0.99772518    -0.71800
O106        O  0.05652793  0.47427883  0.99036055    -2.32700
O107        O  0.92774986  0.47216624  0.99624444    -2.28900
O108        O  0.05569371  0.53963741  0.99160187    -0.73500
H109        H  0.98593457  0.55410440  0.90550589     0.78500
H110        H  0.08201164  0.46052592  0.98947773     0.79600
H111        H  0.99472809  0.55154234  0.08504969     0.81800
H112        H  0.90293791  0.45758176  0.99692558     0.79400
H113        H  0.13912728  0.51338673  0.95405896     0.42400
H114        H  0.14854703  0.50975969  0.07231250     0.41400
H115        H  0.09948471  0.49883263  0.13662141     0.41100
H116        H  0.91931259  0.49848111  0.15146342     0.39000
H117        H  0.84396751  0.49220210  0.03908488     0.42100
H118        H  0.83766197  0.49154867  0.91125918     0.36900
H119        H  0.89119900  0.51902498  0.84935499     0.43000
H120        H  0.02605246  0.52985279  0.84327255     0.39400
H121        H  0.96695391  0.48762280  0.14316518     0.44400
H122        H  0.83620928  0.52378586  0.93973601     0.43100
H123        H  0.07137325  0.51346852  0.83778572     0.43200
H124        H  0.14361178  0.48518012  0.03334634     0.43600
C125        C  0.73312028  0.25566680  0.74873298    -0.02500
O126        O  0.57246792  0.07088734  0.92507014    -0.75300
O127        O  0.53743000  0.10915343  0.96674165    -0.54200
C128        C  0.56256261  0.10103633  0.93556564     0.78400
O129        O  0.40855103  0.95501598  0.92675881    -0.59900
O130        O  0.45175074  0.91566410  0.95808603    -0.52900
C131        C  0.42053546  0.92463476  0.93327063     0.70500
O132        O  0.41550648  0.06738148  0.92143508    -0.74400
O133        O  0.44474642  0.10672942  0.96623897    -0.55000
C134        C  0.42163189  0.09769255  0.93369545     0.76500
O135        O  0.58372117  0.95779634  0.92918872    -0.59600
O136        O  0.54499481  0.91666510  0.96184860    -0.52700
C137        C  0.57445183  0.92681014  0.93601016     0.73100
Zr138      Zr  0.56043482  0.01385692  0.95050813     2.54700
O139        O  0.56735876  0.01340485  0.87233384    -0.80200
O140        O  0.63783840  0.01999350  0.96041195    -0.93600
Zr141      Zr  0.43367749  0.01118473  0.94462291     2.64700
O142        O  0.44736416  0.00988874  0.86732174    -0.98500
O143        O  0.35591637  0.01493675  0.93611391    -0.80600
O144        O  0.49586222  0.04508815  0.94865274    -0.83900
O145        O  0.49810214  0.97991243  0.94518558    -2.18700
O146        O  0.57854403  0.95499139  0.09806795    -0.67300
O147        O  0.54547724  0.91578310  0.05587942    -0.51900
C148        C  0.57164744  0.92472174  0.08612925     0.71400
O149        O  0.40568777  0.06318817  0.09633224    -0.60200
O150        O  0.44279228  0.10449514  0.06217659    -0.52200
C151        C  0.41411027  0.09410846  0.08885772     0.73200
O152        O  0.40826803  0.95116710  0.09004455    -0.71600
O153        O  0.44693742  0.91314787  0.05134473    -0.50300
C154        C  0.41828439  0.92110000  0.07930889     0.74600
O155        O  0.57408479  0.06605859  0.10253933    -0.67000
O156        O  0.53839302  0.10623547  0.06454811    -0.54200
C157        C  0.56508662  0.09668931  0.09401580     0.73000
Zr158      Zr  0.55506599  0.01062665  0.07766260     2.77500
O159        O  0.54792094  0.00896029  0.15582518    -0.97700
O160        O  0.63332094  0.01231480  0.08033963    -0.78500
Zr161      Zr  0.42811713  0.00829803  0.07178174     2.70100
O162        O  0.42402743  0.00614862  0.15010442    -0.79800
O163        O  0.35028827  0.00909548  0.06212571    -0.98900
Zr164      Zr  0.49229967  0.07592258  0.01422075     2.21500
Zr165      Zr  0.49640597  0.94639067  0.00876520     2.11100
O166        O  0.49260049  0.97682378  0.07476259    -2.47600
O167        O  0.49055901  0.04206857  0.07730068    -0.79600
O168        O  0.55998575  0.97958128  0.01281942    -0.71800
O169        O  0.42889316  0.04241135  0.00945072    -2.32700
O170        O  0.55790412  0.04503219  0.01545099    -2.28900
O171        O  0.43082794  0.97714400  0.00700901    -0.73500
H172        H  0.49932906  0.96622663  0.91964821     0.78500
H173        H  0.40345722  0.05617893  0.00877589     0.79600
H174        H  0.49208561  0.96191136  0.09929524     0.81000
H175        H  0.58231168  0.05987872  0.01699098     0.79400
H176        H  0.34602898  0.02680298  0.96226694     0.42400
H177        H  0.34478343  0.99377346  0.03764395     0.41400
H178        H  0.45329326  0.01232658  0.16004068     0.41100
H179        H  0.53293337  0.98768042  0.16192944     0.39000
H180        H  0.64254969  0.99638999  0.05778303     0.42100
H181        H  0.64192449  0.04301417  0.97130885     0.36900
H182        H  0.54135932  0.02516706  0.86172931     0.43000
H183        H  0.44643602  0.98598961  0.85929162     0.39400
H184        H  0.57760641  0.00544738  0.16664080     0.44400
H185        H  0.64938093  0.02060642  0.93071083     0.43100
H186        H  0.42118668  0.01958467  0.85400473     0.43200
H187        H  0.33888222  0.99720482  0.08762361     0.43600
C188        C  0.24882054  0.75909102  0.75682549    -0.02500
O189        O  0.91319488  0.06505261  0.41853009    -0.75300
O190        O  0.94646857  0.10341720  0.46187107    -0.54200
C191        C  0.92122829  0.09528374  0.43065602     0.78400
O192        O  0.90650372  0.94581511  0.58289552    -0.59900
O193        O  0.94835840  0.90756252  0.54823212    -0.52900
C194        C  0.91770379  0.91562567  0.57392335     0.70500
O195        O  0.90530014  0.05820003  0.59028431    -0.74400
O196        O  0.94162787  0.09941431  0.55521019    -0.55000
C197        C  0.91318451  0.08915963  0.58236853     0.76500
O198        O  0.91541621  0.95132928  0.41134371    -0.59600
O199        O  0.94748061  0.91137019  0.45327428    -0.52700
C200        C  0.92282400  0.92074819  0.42208111     0.73100
Zr201      Zr  0.93216359  0.00738197  0.43833683     2.54700
O202        O  0.85389943  0.00547022  0.43525373    -0.80200
O203        O  0.93777263  0.01074222  0.36010044    -0.93600
Zr204      Zr  0.92828947  0.00315609  0.56624668     2.64700
O205        O  0.85015423  0.00462403  0.55954057    -0.98500
O206        O  0.92823568  0.00073485  0.64475785    -0.80600
O207        O  0.92851497  0.03773000  0.50402235    -0.83900
O208        O  0.92973043  0.97284387  0.50074070    -2.18700
O209        O  0.07730901  0.95222635  0.41702442    -0.67300
O210        O  0.04147704  0.91131173  0.45319610    -0.51900
C211        C  0.06814923  0.92135889  0.42435746     0.71400
O212        O  0.07614686  0.06042752  0.59513370    -0.60200
O213        O  0.04002648  0.10052511  0.55710142    -0.52200
C214        C  0.06740109  0.09103212  0.58589278     0.73200
O215        O  0.08114297  0.94899183  0.58749974    -0.71600
O216        O  0.04220398  0.90976054  0.55067844    -0.50300
C217        C  0.07165310  0.91867250  0.57775440     0.74600
O218        O  0.08148332  0.06474328  0.42683300    -0.67000
O219        O  0.04023152  0.10293816  0.46242941    -0.54200
C220        C  0.07049682  0.09485263  0.43620342     0.73000
Zr221      Zr  0.05882361  0.00788680  0.44300838     2.77500
O222        O  0.13708363  0.00561454  0.44536070    -0.97700
O223        O  0.05847763  0.01146792  0.36458385    -0.78500
Zr224      Zr  0.05573559  0.00476931  0.57036672     2.70100
O225        O  0.13405385  0.00599066  0.57116722    -0.79800
O226        O  0.04948214  0.00030310  0.64838956    -0.98900
Zr227      Zr  0.99249910  0.07048872  0.50820314     2.21500
Zr228      Zr  0.99477116  0.94106014  0.50253697     2.11100
O229        O  0.05892990  0.97375646  0.50528257    -2.47600
O230        O  0.05769122  0.03903809  0.50818637    -0.79600
O231        O  0.99582841  0.97481756  0.43900712    -0.71800
O232        O  0.99135133  0.03641445  0.57114298    -2.32700
O233        O  0.99521533  0.04035034  0.44169674    -2.28900
O234        O  0.99261936  0.97137999  0.56848950    -0.73500
H235        H  0.90483411  0.95841918  0.49904493     0.78500
H236        H  0.99043012  0.04996645  0.59690745     0.79600
H237        H  0.08424475  0.95977380  0.50496725     0.81800
H238        H  0.99608502  0.05540177  0.41735598     0.79400
H239        H  0.89990577  0.99107983  0.65221067     0.42400
H240        H  0.07669636  0.00977271  0.65976820     0.41400
H241        H  0.14211385  0.00068930  0.60134618     0.41100
H242        H  0.14668278  0.02148310  0.42288573     0.39000
H243        H  0.03685648  0.99477429  0.35520739     0.42100
H244        H  0.95775844  0.02951194  0.35467053     0.36900
H245        H  0.84619641  0.01817821  0.40892477     0.43000
H246        H  0.84107430  0.98106057  0.55644000     0.39400
H247        H  0.14494181  0.01647969  0.47299186     0.44400
H248        H  0.90936580  0.01907976  0.35032894     0.43100
H249        H  0.83989237  0.01129077  0.58846945     0.43200
H250        H  0.02724403  0.01686063  0.65627236     0.43600
C251        C  0.74819557  0.75527237  0.24987497    -0.02500
C252        C  0.23644384  0.25869492  0.25719545    -0.02500
C253        C  0.75073447  0.26088750  0.25700064    -0.02500
C254        C  0.24052185  0.75812372  0.24803747    -0.02500
C255        C  0.25050666  0.25730885  0.74965937    -0.02500
C256        C  0.73746846  0.76098768  0.75280351    -0.02500
C257        C  0.15576214  0.15630842  0.74415879    -0.17800
C258        C  0.13018404  0.13327047  0.72182448    -0.20000
C259        C  0.12349529  0.13655329  0.67722582     0.20700
C260        C  0.14271361  0.16335980  0.65491135    -0.02900
C261        C  0.16926416  0.18622242  0.67739095    -0.06000
C262        C  0.17557126  0.18275891  0.72218970     0.20900
C263        C  0.18982904  0.21224416  0.65496158     0.19100
C264        C  0.18317082  0.21549647  0.61025806    -0.17500
C265        C  0.15618382  0.19327094  0.58809044    -0.19700
C266        C  0.13584611  0.16708493  0.61009227     0.20600
C267        C  0.10946909  0.14418773  0.58801022    -0.32700
C268        C  0.09132493  0.11692339  0.60991045     0.01300
C269        C  0.09844840  0.11325728  0.65446670    -0.24000
C270        C  0.20147967  0.20575423  0.74440869    -0.28600
C271        C  0.22218158  0.23245687  0.72286253     0.07000
C272        C  0.21679381  0.23452397  0.67741817    -0.27300
H273        H  0.16032281  0.15328220  0.77862026     0.11700
H274        H  0.11561909  0.11287084  0.73945680     0.12800
H275        H  0.19870633  0.23535281  0.59242438     0.11900
H276        H  0.15154562  0.19638012  0.55364679     0.11100
H277        H  0.10444258  0.14676483  0.55351619     0.16500
H278        H  0.08442662  0.09222349  0.67135953     0.12400
H279        H  0.20525708  0.20315016  0.77903265     0.15300
H280        H  0.23311983  0.25327738  0.65870513     0.15100
C281        C  0.07564152  0.20222646  0.35726286    -0.17800
C282        C  0.09854439  0.22549860  0.33261054    -0.20000
C283        C  0.14285952  0.22151253  0.32571014     0.20700
C284        C  0.16446259  0.19437997  0.34517075    -0.02900
C285        C  0.14130371  0.17059340  0.36936478    -0.06000
C286        C  0.09658996  0.17444194  0.37529252     0.20900
C287        C  0.16282005  0.14266258  0.38694974     0.19100
C288        C  0.20745568  0.13952677  0.38195721    -0.17500
C289        C  0.23054006  0.16362819  0.35915242    -0.19700
C290        C  0.20915093  0.19073776  0.34002773     0.20600
C291        C  0.23150826  0.21341549  0.31431407    -0.32700
C292        C  0.20970812  0.23826973  0.29014329     0.01300
C293        C  0.16562425  0.24350763  0.29867106    -0.24000
C294        C  0.07364471  0.15020638  0.39860455    -0.28600
C295        C  0.09476882  0.12178343  0.41483037     0.07000
C296        C  0.13930641  0.11822142  0.40890430    -0.27300
H297        H  0.04136766  0.20566716  0.36161456     0.11700
H298        H  0.08142018  0.24631938  0.31831167     0.12800
H299        H  0.22448075  0.11836025  0.39552720     0.11900
H300        H  0.26496076  0.16055962  0.35543441     0.11100
H301        H  0.26589738  0.21019852  0.31034683     0.16500
H302        H  0.14876504  0.26439115  0.28442355     0.12400
H303        H  0.03920469  0.15282114  0.40284152     0.15300
H304        H  0.15567746  0.09641258  0.42164074     0.15100
C305        C  0.75243768  0.84883833  0.64110851    -0.17800
C306        C  0.77726046  0.87081370  0.61670273    -0.20000
C307        C  0.82220605  0.86791112  0.61634489     0.20700
C308        C  0.84231450  0.84175179  0.63930420    -0.02900
C309        C  0.81717583  0.81974693  0.66436642    -0.06000
C310        C  0.77221305  0.82383808  0.66585446     0.20900
C311        C  0.83703334  0.79424558  0.68865060     0.19100
C312        C  0.88189197  0.79017782  0.68622101    -0.17500
C313        C  0.90691902  0.81207012  0.66143245    -0.19700
C314        C  0.88752049  0.83827206  0.63830910     0.20600
C315        C  0.91236595  0.86160545  0.61518536    -0.32700
C316        C  0.89237754  0.88869909  0.59420461     0.01300
C317        C  0.84735914  0.89130676  0.59439045    -0.24000
C318        C  0.74778329  0.80383090  0.69333208    -0.28600
C319        C  0.76723605  0.78004355  0.72086900     0.07000
C320        C  0.81189756  0.77399726  0.71586375    -0.27300
H321        H  0.71782529  0.85202178  0.64162246     0.11700
H322        H  0.76134720  0.89052464  0.59879722     0.12800
H323        H  0.89777277  0.77059209  0.70439079     0.11900
H324        H  0.94153129  0.80887535  0.66099135     0.11100
H325        H  0.94715042  0.85957701  0.61506248     0.16500
H326        H  0.83193359  0.91194170  0.57777096     0.12400
H327        H  0.71330873  0.80776330  0.69496286     0.15300
H328        H  0.82758347  0.75382686  0.73282547     0.15100
C329        C  0.15441677  0.89416209  0.29641962    -0.17800
C330        C  0.17719314  0.87141216  0.27133751    -0.20000
C331        C  0.17921284  0.83768990  0.28329955     0.20700
C332        C  0.15722755  0.82647259  0.32008066    -0.02900
C333        C  0.13370028  0.84942009  0.34520786    -0.06000
C334        C  0.13298477  0.88346558  0.33360392     0.20900
C335        C  0.11138557  0.83842415  0.38207709     0.19100
C336        C  0.11198817  0.80432154  0.39272592    -0.17500
C337        C  0.13549314  0.78154729  0.36777571    -0.19700
C338        C  0.15878966  0.79244515  0.33168013     0.20600
C339        C  0.18436409  0.77022998  0.30754428    -0.32700
C340        C  0.20968288  0.78184011  0.27280153     0.01300
C341        C  0.20354122  0.81526911  0.25924687    -0.24000
C342        C  0.11127493  0.90640435  0.35951645    -0.28600
C343        C  0.08982288  0.89603614  0.39704729     0.07000
C344        C  0.08939866  0.86180509  0.40776202    -0.27300
H345        H  0.15388757  0.92019107  0.28693758     0.11700
H346        H  0.19394509  0.88032633  0.24300502     0.12800
H347        H  0.09473678  0.79531872  0.42069204     0.11900
H348        H  0.13595055  0.75548966  0.37709428     0.11100
H349        H  0.18593130  0.74416049  0.31672872     0.16500
H350        H  0.21799667  0.82447572  0.22990224     0.12400
H351        H  0.11124168  0.93251624  0.35033546     0.15300
H352        H  0.07268670  0.85344553  0.43639808     0.15100
C353        C  0.80358841  0.79920905  0.39287969    -0.17800
C354        C  0.82911352  0.82152875  0.41649180    -0.20000
C355        C  0.85406281  0.84557685  0.39522386     0.20700
C356        C  0.85398552  0.84666842  0.34969027    -0.02900
C357        C  0.82924334  0.82345315  0.32588937    -0.06000
C358        C  0.80339294  0.80001322  0.34757011     0.20900
C359        C  0.82953056  0.82432753  0.28047008     0.19100
C360        C  0.85440151  0.84838253  0.25912592    -0.17500
C361        C  0.87809512  0.87191115  0.28265912    -0.19700
C362        C  0.87787155  0.87141144  0.32792603     0.20600
C363        C  0.90045228  0.89554324  0.35182411    -0.32700
C364        C  0.90064318  0.89452364  0.39711924     0.01300
C365        C  0.87820019  0.86909052  0.41863519    -0.24000
C366        C  0.77719237  0.77815408  0.32375783    -0.28600
C367        C  0.77793044  0.77788849  0.27802523     0.07000
C368        C  0.80440914  0.80156476  0.25708283    -0.27300
H369        H  0.78398675  0.78128735  0.41008905     0.11700
H370        H  0.82870050  0.82039519  0.45141771     0.12800
H371        H  0.85496057  0.84935425  0.22419420     0.11900
H372        H  0.89642641  0.89061562  0.26544357     0.11100
H373        H  0.91802176  0.91507736  0.33528995     0.16500
H374        H  0.87813847  0.86849641  0.45362125     0.12400
H375        H  0.75573785  0.76216654  0.34158026     0.15300
H376        H  0.80483558  0.80243055  0.22211825     0.15100
C377        C  0.81351072  0.22382895  0.40100995    -0.17800
C378        C  0.83771497  0.20061185  0.42479080    -0.20000
C379        C  0.85923056  0.17439527  0.40390422     0.20700
C380        C  0.85734356  0.17218256  0.35850447    -0.02900
C381        C  0.83377234  0.19601502  0.33454097    -0.06000
C382        C  0.81088155  0.22157883  0.35582826     0.20900
C383        C  0.83246476  0.19377306  0.28927989     0.19100
C384        C  0.85457705  0.16807884  0.26813986    -0.17500
C385        C  0.87696004  0.14403896  0.29184124    -0.19700
C386        C  0.87816307  0.14567197  0.33700113     0.20600
C387        C  0.89905689  0.12084818  0.36100098    -0.32700
C388        C  0.90048314  0.12252419  0.40618963     0.01300
C389        C  0.88164226  0.14985438  0.42749747    -0.24000
C390        C  0.78500917  0.24379486  0.33167653    -0.28600
C391        C  0.78161871  0.24048660  0.28635695     0.07000
C392        C  0.80776992  0.21643580  0.26576674    -0.27300
H393        H  0.79641567  0.24331513  0.41803233     0.11700
H394        H  0.83884611  0.20275040  0.45962759     0.12800
H395        H  0.85368170  0.16610323  0.23327303     0.11900
H396        H  0.89297343  0.12397523  0.27486419     0.11100
H397        H  0.91428247  0.10011891  0.34455009     0.16500
H398        H  0.88294598  0.15122851  0.46242008     0.12400
H399        H  0.76751923  0.26312300  0.34841134     0.15300
H400        H  0.80644247  0.21399256  0.23093428     0.15100
C401        C  0.08066706  0.82021179  0.67273176    -0.17800
C402        C  0.10497541  0.79928679  0.69953667    -0.20000
C403        C  0.15002537  0.80213010  0.70126437     0.20700
C404        C  0.17076779  0.82619779  0.67565976    -0.02900
C405        C  0.14620403  0.84781106  0.64926974    -0.06000
C406        C  0.10091333  0.84470426  0.64767315     0.20900
C407        C  0.16688749  0.87307260  0.62539746     0.19100
C408        C  0.21188091  0.87585317  0.62703141    -0.17500
C409        C  0.23621198  0.85400978  0.65254032    -0.19700
C410        C  0.21591648  0.82932454  0.67730504     0.20600
C411        C  0.24003815  0.80786760  0.70378053    -0.32700
C412        C  0.22008295  0.78283529  0.72898319     0.01300
C413        C  0.17445190  0.78151237  0.72856022    -0.24000
C414        C  0.07665489  0.86679937  0.62211469    -0.28600
C415        C  0.09708842  0.89267194  0.59960347     0.07000
C416        C  0.14212857  0.89561314  0.60121472    -0.27300
H417        H  0.04596291  0.81758772  0.67213296     0.11700
H418        H  0.08849319  0.78084380  0.71896592     0.12800
H419        H  0.22824533  0.89507281  0.60878968     0.11900
H420        H  0.27089626  0.85671409  0.65334021     0.11100
H421        H  0.27479501  0.81016592  0.70435176     0.16500
H422        H  0.15705119  0.76487505  0.74951829     0.12400
H423        H  0.04184324  0.86493939  0.62138354     0.15300
H424        H  0.15778775  0.91573499  0.58391864     0.15100
C425        C  0.61459443  0.21305089  0.11892883    -0.17800
C426        C  0.64008001  0.23588215  0.14196431    -0.20000
C427        C  0.66471716  0.22538233  0.17757963     0.20700
C428        C  0.66221898  0.19179910  0.19098380    -0.02900
C429        C  0.63608923  0.16889398  0.16820759    -0.06000
C430        C  0.61287645  0.17938519  0.13139872     0.20900
C431        C  0.63362546  0.13541629  0.18205395     0.19100
C432        C  0.65597769  0.12531043  0.21922214    -0.17500
C433        C  0.68188934  0.14795282  0.24163510    -0.19700
C434        C  0.68575137  0.18103827  0.22724572     0.20600
C435        C  0.71305339  0.20334364  0.24854598    -0.32700
C436        C  0.71919169  0.23650200  0.23357791     0.01300
C437        C  0.69224627  0.24766066  0.19959389    -0.24000
C438        C  0.58888525  0.15595460  0.10750914    -0.28600
C439        C  0.58769407  0.12223792  0.12026585     0.07000
C440        C  0.60944039  0.11244962  0.15817813    -0.27300
H441        H  0.59654121  0.22167271  0.09108842     0.11700
H442        H  0.64114307  0.26163915  0.13140619     0.12800
H443        H  0.65396314  0.09977346  0.23056597     0.11900
H444        H  0.69945505  0.13944226  0.26985814     0.11100
H445        H  0.72905648  0.19439576  0.27735428     0.16500
H446        H  0.69381222  0.27351629  0.18945924     0.12400
H447        H  0.57198355  0.16382145  0.07857285     0.15300
H448        H  0.60812555  0.08671661  0.16893621     0.15100
C449        C  0.36101681  0.23319178  0.16007230    -0.17800
C450        C  0.38692498  0.21002560  0.13850109    -0.20000
C451        C  0.37469041  0.17633540  0.13593203     0.20700
C452        C  0.33575316  0.16600478  0.15498711    -0.02900
C453        C  0.30986555  0.18930860  0.17700220    -0.06000
C454        C  0.32265735  0.22301080  0.17986991     0.20900
C455        C  0.27124081  0.17881521  0.19625139     0.19100
C456        C  0.25812934  0.14541366  0.19258006    -0.17500
C457        C  0.28376325  0.12232046  0.17090168    -0.19700
C458        C  0.32276661  0.13232799  0.15237208     0.20600
C459        C  0.34889212  0.10919250  0.13122319    -0.32700
C460        C  0.38784952  0.11912165  0.11211915     0.01300
C461        C  0.40053977  0.15282231  0.11459129    -0.24000
C462        C  0.29762909  0.24564798  0.20364496    -0.28600
C463        C  0.26141794  0.23465108  0.22710193     0.07000
C464        C  0.24681835  0.20161411  0.21983258    -0.27300
H465        H  0.37137420  0.25897869  0.16190912     0.11700
H466        H  0.41663905  0.21844682  0.12396822     0.12800
H467        H  0.22840183  0.13701835  0.20713389     0.11900
H468        H  0.27323435  0.09657390  0.16890537     0.11100
H469        H  0.33845787  0.08340950  0.12918670     0.16500
H470        H  0.43049929  0.16073196  0.10004485     0.12400
H471        H  0.30763764  0.27149472  0.20580193     0.15300
H472        H  0.21666436  0.19310922  0.23327391     0.15100
C473        C  0.36447838  0.87649522  0.21553729    -0.17800
C474        C  0.34153953  0.85275861  0.23886703    -0.20000
C475        C  0.32158348  0.82600549  0.21758125     0.20700
C476        C  0.32544545  0.82250034  0.17260327    -0.02900
C477        C  0.34996142  0.84586178  0.14915087    -0.06000
C478        C  0.36869244  0.87331928  0.17075713     0.20900
C479        C  0.35510273  0.84213501  0.10417222     0.19100
C480        C  0.33549636  0.81493089  0.08320490    -0.17500
C481        C  0.31013381  0.79221614  0.10640720    -0.19700
C482        C  0.30449608  0.79596567  0.15112677     0.20600
C483        C  0.27768935  0.77420630  0.17463228    -0.32700
C484        C  0.27163318  0.77882533  0.21950274     0.01300
C485        C  0.29662911  0.80343035  0.24061242    -0.24000
C486        C  0.39089801  0.89744259  0.14726047    -0.28600
C487        C  0.39605096  0.89415991  0.10258196     0.07000
C488        C  0.37899967  0.86608544  0.08112794    -0.27300
H489        H  0.37884375  0.89739560  0.23251028     0.11700
H490        H  0.33852633  0.85577096  0.27346644     0.12800
H491        H  0.33908437  0.81158274  0.04872303     0.11900
H492        H  0.29459383  0.77190091  0.08928817     0.11100
H493        H  0.26212930  0.75384573  0.15782018     0.16500
H494        H  0.29401914  0.80642671  0.27528153     0.12400
H495        H  0.40450217  0.91888295  0.16382162     0.15300
H496        H  0.38293446  0.86362848  0.04653742     0.15100
C497        C  0.71952176  0.87542341  0.81742934    -0.17800
C498        C  0.69676799  0.89824108  0.84257589    -0.20000
C499        C  0.66023078  0.88806398  0.86539560     0.20700
C500        C  0.64688205  0.85443641  0.86356037    -0.02900
C501        C  0.67003244  0.83132236  0.83817566    -0.06000
C502        C  0.70612252  0.84201826  0.81465712     0.20900
C503        C  0.65708139  0.79763099  0.83626861     0.19100
C504        C  0.62094343  0.78736468  0.85990646    -0.17500
C505        C  0.59759098  0.81036680  0.88463357    -0.19700
C506        C  0.61021113  0.84402587  0.88660152     0.20600
C507        C  0.58671964  0.86753469  0.91073434    -0.32700
C508        C  0.59957475  0.90133821  0.91204493     0.01300
C509        C  0.63666880  0.91112566  0.88955239    -0.24000
C510        C  0.72801575  0.81938927  0.78822711    -0.28600
C511        C  0.71397889  0.78589410  0.78336963     0.07000
C512        C  0.67996970  0.77500744  0.81017009    -0.27300
H513        H  0.74733240  0.88403238  0.79966948     0.11700
H514        H  0.70749953  0.92396598  0.84379850     0.12800
H515        H  0.61035162  0.76161157  0.85878252     0.11900
H516        H  0.56953889  0.80183938  0.90207744     0.11100
H517        H  0.55819720  0.85959743  0.92790980     0.16500
H518        H  0.64724587  0.93690431  0.89054253     0.12400
H519        H  0.75639746  0.82829493  0.77180945     0.15300
H520        H  0.67029395  0.74902663  0.80940970     0.15100
C521        C  0.35550097  0.16341437  0.76621847    -0.17800
C522        C  0.37961985  0.14142015  0.79165111    -0.20000
C523        C  0.37899837  0.14398968  0.83677667     0.20700
C524        C  0.35457942  0.16933467  0.85654203    -0.02900
C525        C  0.33020318  0.19148146  0.83080669    -0.06000
C526        C  0.33044236  0.18836075  0.78550514     0.20900
C527        C  0.30487154  0.21619525  0.85047379     0.19100
C528        C  0.30424371  0.21874723  0.89569933    -0.17500
C529        C  0.32861590  0.19696740  0.92123970    -0.19700
C530        C  0.35380984  0.17211630  0.90200623     0.20600
C531        C  0.37739307  0.14948140  0.92734619    -0.32700
C532        C  0.40056093  0.12363507  0.90766699     0.01300
C533        C  0.40154208  0.12117346  0.86249430    -0.24000
C534        C  0.30527807  0.20992339  0.76021646    -0.28600
C535        C  0.28017335  0.23545915  0.77906216     0.07000
C536        C  0.28000763  0.23766357  0.82480927    -0.27300
H537        H  0.35616663  0.16073040  0.73144410     0.11700
H538        H  0.39838531  0.12214999  0.77603571     0.12800
H539        H  0.28475890  0.23755666  0.91136217     0.11900
H540        H  0.32741268  0.19934811  0.95604091     0.11100
H541        H  0.37637207  0.15109524  0.96225708     0.16500
H542        H  0.41964163  0.10122427  0.84742772     0.12400
H543        H  0.30499926  0.20688941  0.72545013     0.15300
H544        H  0.25987930  0.25534794  0.84143219     0.15100
C545        C  0.65073409  0.85404781  0.24501128    -0.17800
C546        C  0.62647045  0.87781364  0.22256303    -0.20000
C547        C  0.62362450  0.87668705  0.17738877     0.20700
C548        C  0.64588691  0.85165917  0.15455145    -0.02900
C549        C  0.67125707  0.82820022  0.17720966    -0.06000
C550        C  0.67308762  0.82911394  0.22259805     0.20900
C551        C  0.69511796  0.80413552  0.15441679     0.19100
C552        C  0.69319055  0.80360504  0.10912915    -0.17500
C553        C  0.66701085  0.82618866  0.08669135    -0.19700
C554        C  0.64315779  0.85027051  0.10907964     0.20600
C555        C  0.61728880  0.87337822  0.08683979    -0.32700
C556        C  0.59575451  0.89867106  0.10944691     0.01300
C557        C  0.59929571  0.90034060  0.15461584    -0.24000
C558        C  0.69722395  0.80513718  0.24488589    -0.28600
C559        C  0.72076810  0.78022144  0.22283444     0.07000
C560        C  0.72054308  0.78103823  0.17713904    -0.27300
H561        H  0.65216690  0.85525530  0.27991809     0.11700
H562        H  0.60972701  0.89696475  0.24055207     0.12800
H563        H  0.71153931  0.78542550  0.09104336     0.11900
H564        H  0.66571904  0.82500527  0.05178230     0.11100
H565        H  0.61514310  0.87250077  0.05192261     0.16500
H566        H  0.58279099  0.91998812  0.17200008     0.12400
H567        H  0.69783383  0.80572093  0.27986149     0.15300
H568        H  0.74008950  0.76410250  0.15859457     0.15100
C569        C  0.39152981  0.80519758  0.80963963    -0.17800
C570        C  0.41529850  0.82731227  0.83539576    -0.20000
C571        C  0.39427847  0.85068747  0.86157705     0.20700
C572        C  0.34882037  0.85144781  0.86211510    -0.02900
C573        C  0.32487117  0.82849429  0.83697607    -0.06000
C574        C  0.34630493  0.80555919  0.81028626     0.20900
C575        C  0.27953011  0.82894392  0.83798878     0.19100
C576        C  0.25847222  0.85255240  0.86382031    -0.17500
C577        C  0.28210828  0.87573480  0.88803157    -0.19700
C578        C  0.32723353  0.87544208  0.88729789     0.20600
C579        C  0.35110241  0.89902752  0.91077491    -0.32700
C580        C  0.39626063  0.89838416  0.91042004     0.01300
C581        C  0.41776924  0.87376808  0.88650344    -0.24000
C582        C  0.32234469  0.78358162  0.78430721    -0.28600
C583        C  0.27669759  0.78253818  0.78601687     0.07000
C584        C  0.25596585  0.80601907  0.81295332    -0.27300
H585        H  0.40856526  0.78766951  0.78932137     0.11700
H586        H  0.45012557  0.82642165  0.83439222     0.12800
H587        H  0.22365604  0.85330749  0.86498155     0.11900
H588        H  0.26506506  0.89394964  0.90730574     0.11100
H589        H  0.33460250  0.91795166  0.92944000     0.16500
H590        H  0.45265929  0.87347567  0.88598524     0.12400
H591        H  0.34007406  0.76797801  0.76233274     0.15300
H592        H  0.22111121  0.80652521  0.81400300     0.15100
C593        C  0.78770333  0.13887187  0.72356769    -0.17800
C594        C  0.81126027  0.11584546  0.69942105    -0.20000
C595        C  0.83647708  0.12653210  0.66462356     0.20700
C596        C  0.83762096  0.16068900  0.65376267    -0.02900
C597        C  0.81306858  0.18388275  0.67767637    -0.06000
C598        C  0.78824551  0.17290631  0.71278793     0.20900
C599        C  0.81383492  0.21803615  0.66682420     0.19100
C600        C  0.83942538  0.22872934  0.63226679    -0.17500
C601        C  0.86402553  0.20580246  0.60874416    -0.19700
C602        C  0.86343585  0.17169383  0.61922873     0.20600
C603        C  0.88829983  0.14845772  0.59602105    -0.32700
C604        C  0.88732288  0.11423376  0.60665035     0.01300
C605        C  0.86089612  0.10363723  0.64089845    -0.24000
C606        C  0.76409373  0.19598263  0.73645068    -0.28600
C607        C  0.76157825  0.23004060  0.72410951     0.07000
C608        C  0.78873747  0.24082509  0.69037554    -0.27300
H609        H  0.76868407  0.12999266  0.75043433     0.11700
H610        H  0.81002647  0.08968381  0.70819608     0.12800
H611        H  0.84039392  0.25486756  0.62337544     0.11900
H612        H  0.88353580  0.21477656  0.58230722     0.11100
H613        H  0.90817952  0.15701180  0.56961046     0.16500
H614        H  0.85964223  0.07746115  0.64964398     0.12400
H615        H  0.74755463  0.18690897  0.76470999     0.15300
H616        H  0.78947786  0.26703331  0.68179439     0.15100
C617        C  0.64747510  0.20512428  0.92075454    -0.17800
C618        C  0.67036941  0.22747429  0.89472590    -0.20000
C619        C  0.67108572  0.22338076  0.84972911     0.20700
C620        C  0.64654679  0.19761746  0.83069171    -0.02900
C621        C  0.62314420  0.17525379  0.85685299    -0.06000
C622        C  0.62432484  0.17858841  0.90220749     0.20900
C623        C  0.59970223  0.14892476  0.83763374     0.19100
C624        C  0.59823383  0.14606957  0.79253416    -0.17500
C625        C  0.62127789  0.16829100  0.76668522    -0.19700
C626        C  0.64623080  0.19363368  0.78556074     0.20600
C627        C  0.67237347  0.21402163  0.76014489    -0.32700
C628        C  0.70098443  0.23743994  0.77895671     0.01300
C629        C  0.69727156  0.24366558  0.82371374    -0.24000
C630        C  0.60311506  0.15492027  0.92808428    -0.28600
C631        C  0.58127622  0.12789281  0.90899631     0.07000
C632        C  0.57915202  0.12536945  0.86383718    -0.27300
H633        H  0.64849218  0.20826063  0.95546490     0.11700
H634        H  0.68864352  0.24733396  0.90992414     0.12800
H635        H  0.58002209  0.12619828  0.77728351     0.11900
H636        H  0.62054347  0.16507227  0.73197237     0.11100
H637        H  0.67279208  0.21018310  0.72550911     0.16500
H638        H  0.71487362  0.26380202  0.83881968     0.12400
H639        H  0.60487943  0.15678182  0.96294949     0.15300
H640        H  0.56192836  0.10469229  0.84915728     0.15100
C641        C  0.19967062  0.38788643  0.14910194    -0.17800
C642        C  0.22271871  0.36578955  0.17524013    -0.20000
C643        C  0.20562944  0.33437217  0.18546095     0.20700
C644        C  0.16549067  0.32470331  0.16833074    -0.02900
C645        C  0.14203746  0.34712004  0.14188749    -0.06000
C646        C  0.15915486  0.37893509  0.13270405     0.20900
C647        C  0.10147638  0.33786341  0.12499433     0.19100
C648        C  0.08539663  0.30579623  0.13391361    -0.17500
C649        C  0.10904213  0.28336430  0.15960518    -0.19700
C650        C  0.14896052  0.29270370  0.17749174     0.20600
C651        C  0.17233986  0.27095183  0.20482885    -0.32700
C652        C  0.21057626  0.28166011  0.22580987     0.01300
C653        C  0.22796890  0.31280341  0.21305654    -0.24000
C654        C  0.13540193  0.40151218  0.10772443    -0.28600
C655        C  0.09438445  0.39311699  0.09165479     0.07000
C656        C  0.07779549  0.36094749  0.09989175    -0.27300
H657        H  0.21334801  0.41216300  0.14211060     0.11700
H658        H  0.25371404  0.37347928  0.18797630     0.12800
H659        H  0.05443283  0.29808321  0.12114029     0.11900
H660        H  0.09574103  0.25888251  0.16606987     0.11100
H661        H  0.16015000  0.24604152  0.21069791     0.16500
H662        H  0.25924768  0.32067318  0.22476050     0.12400
H663        H  0.14888573  0.42592997  0.10103248     0.15300
H664        H  0.04624374  0.35418120  0.08764027     0.15100
C665        C  0.11449347  0.71015925  0.10060770    -0.17800
C666        C  0.13791023  0.73310301  0.12572217    -0.20000
C667        C  0.16048893  0.72255959  0.16269506     0.20700
C668        C  0.15896573  0.68860253  0.17454963    -0.02900
C669        C  0.13516914  0.66551231  0.14943963    -0.06000
C670        C  0.11288774  0.67624187  0.11213834     0.20900
C671        C  0.13395000  0.63162108  0.16162984     0.19100
C672        C  0.15609971  0.62106658  0.19872981    -0.17500
C673        C  0.17936576  0.64389531  0.22360613    -0.19700
C674        C  0.18113757  0.67761809  0.21162758     0.20600
C675        C  0.20540792  0.70025668  0.23590543    -0.32700
C676        C  0.21063234  0.73383175  0.22267169     0.01300
C677        C  0.18531143  0.74509052  0.18745239    -0.24000
C678        C  0.08974249  0.65282228  0.08704947    -0.28600
C679        C  0.08889612  0.61878663  0.09881645     0.07000
C680        C  0.11088270  0.60869451  0.13648466    -0.27300
H681        H  0.09772096  0.71894919  0.07206543     0.11700
H682        H  0.13874066  0.75905187  0.11593244     0.12800
H683        H  0.15555862  0.59509223  0.20844594     0.11900
H684        H  0.19643412  0.63507653  0.25197557     0.11100
H685        H  0.22039418  0.69119218  0.26522028     0.16500
H686        H  0.18637572  0.77118660  0.17832736     0.12400
H687        H  0.07304127  0.66097497  0.05813503     0.15300
H688        H  0.11022665  0.58274806  0.14638463     0.15100
C689        C  0.75320707  0.66128807  0.14321174    -0.17800
C690        C  0.77610134  0.63815452  0.11842646    -0.20000
C691        C  0.82127609  0.63804515  0.11901468     0.20700
C692        C  0.84357523  0.66164622  0.14450073    -0.02900
C693        C  0.82045793  0.68447256  0.17012426    -0.06000
C694        C  0.77512505  0.68444518  0.16934118     0.20900
C695        C  0.84282029  0.70702366  0.19690846     0.19100
C696        C  0.88796815  0.70711253  0.19732310    -0.17500
C697        C  0.91088749  0.68519796  0.17104608    -0.19700
C698        C  0.88902976  0.66225164  0.14475365     0.20600
C699        C  0.91184562  0.63947504  0.11937532    -0.32700
C700        C  0.88983101  0.61524730  0.09522579     0.01300
C701        C  0.84463227  0.61455359  0.09508494    -0.24000
C702        C  0.75258054  0.70760071  0.19461012    -0.28600
C703        C  0.77451180  0.73101054  0.22108672     0.07000
C704        C  0.81993858  0.72921068  0.22293424    -0.27300
H705        H  0.71835755  0.66092763  0.14214953     0.11700
H706        H  0.75848487  0.62034065  0.09882147     0.12800
H707        H  0.90559814  0.72438507  0.21771362     0.11900
H708        H  0.94573511  0.68591630  0.17169951     0.11100
H709        H  0.94674828  0.63970199  0.11965559     0.16500
H710        H  0.82779987  0.59581436  0.07620111     0.12400
H711        H  0.71769898  0.70759718  0.19375902     0.15300
H712        H  0.83832912  0.74459987  0.24484973     0.15100
C713        C  0.19480723  0.70964831  0.89699229    -0.17800
C714        C  0.16744695  0.68790787  0.91920305    -0.20000
C715        C  0.14053495  0.66583176  0.89652052     0.20700
C716        C  0.14142575  0.66555708  0.85096047    -0.02900
C717        C  0.16839925  0.68799516  0.82857832    -0.06000
C718        C  0.19520775  0.71015550  0.85166431     0.20900
C719        C  0.16881752  0.68798072  0.78315248     0.19100
C720        C  0.14252960  0.66548021  0.76037121    -0.17500
C721        C  0.11641162  0.64284049  0.78248253    -0.19700
C722        C  0.11569897  0.64264578  0.82774115     0.20600
C723        C  0.09013829  0.61970491  0.85020427    -0.32700
C724        C  0.08868480  0.62018562  0.89550716     0.01300
C725        C  0.11341661  0.64358001  0.91852257    -0.24000
C726        C  0.22176889  0.73257418  0.82919214    -0.28600
C727        C  0.22099577  0.73420485  0.78352359     0.07000
C728        C  0.19531878  0.71053021  0.76118495    -0.27300
H729        H  0.21535459  0.72635185  0.91531963     0.11700
H730        H  0.16753073  0.68822664  0.95416242     0.12800
H731        H  0.14233678  0.66527283  0.72541083     0.11900
H732        H  0.09672306  0.62550680  0.76417695     0.11100
H733        H  0.07131948  0.60138978  0.83252194     0.16500
H734        H  0.11292472  0.64343272  0.95350799     0.12400
H735        H  0.24294360  0.74841562  0.84784156     0.15300
H736        H  0.19524217  0.71039707  0.72619904     0.15100
C737        C  0.78337442  0.62238402  0.83498955    -0.17800
C738        C  0.75868621  0.64591323  0.81273641    -0.20000
C739        C  0.77151070  0.67948224  0.81149665     0.20700
C740        C  0.80930571  0.68957790  0.83296960    -0.02900
C741        C  0.83402858  0.66585540  0.85597611    -0.06000
C742        C  0.82098720  0.63213215  0.85682493     0.20900
C743        C  0.87172134  0.67585213  0.87801817     0.19100
C744        C  0.88442119  0.70949018  0.87647920    -0.17500
C745        C  0.85988967  0.73300226  0.85356657    -0.19700
C746        C  0.82215828  0.72334034  0.83175103     0.20600
C747        C  0.79758715  0.74659614  0.80800089    -0.32700
C748        C  0.76169078  0.73621969  0.78312400     0.01300
C749        C  0.74737966  0.70286241  0.78840264    -0.24000
C750        C  0.84571553  0.60866971  0.87943239    -0.28600
C751        C  0.88344801  0.61823927  0.90167915     0.07000
C752        C  0.89606829  0.65203624  0.90097352    -0.27300
H753        H  0.77299021  0.59656119  0.83519332     0.11700
H754        H  0.72979072  0.63777337  0.79605181     0.12800
H755        H  0.91340698  0.71762729  0.89296710     0.11900
H756        H  0.87057488  0.75873470  0.85273720     0.11100
H757        H  0.80760675  0.77249939  0.80701817     0.16500
H758        H  0.71743124  0.69444798  0.77417783     0.12400
H759        H  0.83535736  0.58282546  0.87968884     0.15300
H760        H  0.92511456  0.65974245  0.91772199     0.15100
C761        C  0.23676596  0.35908759  0.84218252    -0.17800
C762        C  0.21204635  0.38217788  0.86516169    -0.20000
C763        C  0.16747715  0.37759869  0.86948070     0.20700
C764        C  0.14776542  0.34922771  0.85099749    -0.02900
C765        C  0.17266389  0.32619954  0.82732926    -0.06000
C766        C  0.21728859  0.33115732  0.82289703     0.20900
C767        C  0.15269965  0.29857049  0.80751917     0.19100
C768        C  0.10832902  0.29349933  0.81272535    -0.17500
C769        C  0.08375972  0.31598618  0.83670038    -0.19700
C770        C  0.10304197  0.34412339  0.85554293     0.20600
C771        C  0.07827060  0.36751743  0.87818150    -0.32700
C772        C  0.09746085  0.39634807  0.89538464     0.01300
C773        C  0.14211938  0.40112012  0.89126839    -0.24000
C774        C  0.24161736  0.30831074  0.79897325    -0.28600
C775        C  0.22210003  0.28075718  0.77782270     0.07000
C776        C  0.17707262  0.27668596  0.78224911    -0.27300
H777        H  0.27105558  0.36328626  0.83907077     0.11700
H778        H  0.22774704  0.40374348  0.87930526     0.12800
H779        H  0.09253494  0.27219366  0.79802590     0.11900
H780        H  0.04952811  0.31161775  0.83997719     0.11100
H781        H  0.04384472  0.36388730  0.88124697     0.16500
H782        H  0.15704267  0.42318018  0.90505258     0.12400
H783        H  0.27604116  0.31209269  0.79623941     0.15300
H784        H  0.16002083  0.25686343  0.76604510     0.15100
C785        C  0.86119971  0.34947634  0.24042000    -0.17800
C786        C  0.88347207  0.37245289  0.21498494    -0.20000
C787        C  0.88216804  0.37001775  0.16984047     0.20700
C788        C  0.85940990  0.34355246  0.15014135    -0.02900
C789        C  0.83600634  0.32086313  0.17584097    -0.06000
C790        C  0.83657745  0.32414480  0.22105400     0.20900
C791        C  0.81139354  0.29536912  0.15626586     0.19100
C792        C  0.81241144  0.29168302  0.11122231    -0.17500
C793        C  0.83615358  0.31386489  0.08572214    -0.19700
C794        C  0.85915054  0.34025788  0.10477368     0.20600
C795        C  0.88117514  0.36378099  0.07936491    -0.32700
C796        C  0.90217832  0.39101872  0.09887450     0.01300
C797        C  0.90266801  0.39386462  0.14406582    -0.24000
C798        C  0.81107451  0.30301014  0.24609980    -0.28600
C799        C  0.78238669  0.27978394  0.22687446     0.07000
C800        C  0.78516472  0.27473771  0.18183266    -0.27300
H801        H  0.86216631  0.35214345  0.27520676     0.11700
H802        H  0.90129665  0.39236587  0.23060537     0.12800
H803        H  0.79410776  0.27203943  0.09560210     0.11900
H804        H  0.83578760  0.31078330  0.05099496     0.11100
H805        H  0.88063573  0.36165910  0.04449102     0.16500
H806        H  0.91918959  0.41471623  0.15914370     0.12400
H807        H  0.81101150  0.30620837  0.28085203     0.15300
H808        H  0.76698651  0.25514509  0.16622637     0.15100
C809        C  0.80558391  0.36698932  0.76440047    -0.17800
C810        C  0.83046988  0.38967632  0.78790597    -0.20000
C811        C  0.85106519  0.37972931  0.82615806     0.20700
C812        C  0.84711255  0.34647941  0.84057013    -0.02900
C813        C  0.82168524  0.32356762  0.81685718    -0.06000
C814        C  0.80058682  0.33406249  0.77896006     0.20900
C815        C  0.81726642  0.29030435  0.83106346     0.19100
C816        C  0.83891025  0.28019786  0.86878547    -0.17500
C817        C  0.86388232  0.30298961  0.89255681    -0.19700
C818        C  0.86803757  0.33627601  0.87887698     0.20600
C819        C  0.89220800  0.35963697  0.90295199    -0.32700
C820        C  0.89542121  0.39309859  0.88918000     0.01300
C821        C  0.87507541  0.40265416  0.85040704    -0.24000
C822        C  0.77398153  0.31183168  0.75657837    -0.28600
C823        C  0.76561385  0.27924208  0.77230711     0.07000
C824        C  0.79046168  0.26809264  0.80792519    -0.27300
H825        H  0.78957508  0.37538442  0.73521035     0.11700
H826        H  0.83328090  0.41510867  0.77636104     0.12800
H827        H  0.83597162  0.25477897  0.88031504     0.11900
H828        H  0.87971600  0.29461933  0.92183906     0.11100
H829        H  0.90761283  0.35197764  0.93280186     0.16500
H830        H  0.87761837  0.42818431  0.83909382     0.12400
H831        H  0.75965671  0.32046954  0.72672398     0.15300
H832        H  0.78731305  0.24250359  0.81878860     0.15100
C833        C  0.72348016  0.66863651  0.64836648    -0.17800
C834        C  0.69933114  0.64474518  0.62627964    -0.20000
C835        C  0.65432372  0.64635921  0.62621266     0.20700
C836        C  0.63327929  0.67248008  0.64821534    -0.02900
C837        C  0.65776842  0.69630340  0.67127869    -0.06000
C838        C  0.70295079  0.69422042  0.67120134     0.20900
C839        C  0.63717663  0.72194490  0.69457043     0.19100
C840        C  0.59201271  0.72392924  0.69350721    -0.17500
C841        C  0.56763398  0.70053866  0.67005885    -0.19700
C842        C  0.58793578  0.67455693  0.64746576     0.20600
C843        C  0.56401095  0.65042916  0.62441394    -0.32700
C844        C  0.58516854  0.62387297  0.60355912     0.01300
C845        C  0.63014469  0.62211526  0.60462842    -0.24000
C846        C  0.72709601  0.71695737  0.69517654    -0.28600
C847        C  0.70734026  0.74102080  0.72192158     0.07000
C848        C  0.66205252  0.74454869  0.71920580    -0.27300
H849        H  0.75825847  0.66675212  0.64822676     0.11700
H850        H  0.71586953  0.62491208  0.60935827     0.12800
H851        H  0.57549893  0.74339545  0.71114313     0.11900
H852        H  0.53287423  0.70257407  0.66997042     0.11100
H853        H  0.52917555  0.65177917  0.62353473     0.16500
H854        H  0.64638623  0.60193396  0.58801530     0.12400
H855        H  0.76183726  0.71446137  0.69559229     0.15300
H856        H  0.64578497  0.76433645  0.73622613     0.15100
C857        C  0.38941472  0.29862259  0.68311755    -0.17800
C858        C  0.41158004  0.32079247  0.65631353    -0.20000
C859        C  0.38951099  0.34638953  0.63466308     0.20700
C860        C  0.34452765  0.34932267  0.63960092    -0.02900
C861        C  0.32207226  0.32649247  0.66598176    -0.06000
C862        C  0.34465639  0.30129942  0.68823328     0.20900
C863        C  0.27718025  0.32925553  0.67059986     0.19100
C864        C  0.25504978  0.35499053  0.64924705    -0.17500
C865        C  0.27731940  0.37795416  0.62370745    -0.19700
C866        C  0.32205537  0.37539888  0.61879087     0.20600
C867        C  0.34483591  0.39887758  0.59427275    -0.32700
C868        C  0.38969551  0.39632360  0.58964188     0.01300
C869        C  0.41172641  0.36960519  0.60910228    -0.24000
C870        C  0.32236264  0.27938302  0.71554936    -0.28600
C871        C  0.27694810  0.28077024  0.71942260     0.07000
C872        C  0.25510453  0.30637330  0.69656691    -0.27300
H873        H  0.40732626  0.27932316  0.69984267     0.11700
H874        H  0.44610362  0.31819873  0.65300063     0.12800
H875        H  0.22052172  0.35753172  0.65258872     0.11900
H876        H  0.25956110  0.39780726  0.60793763     0.11100
H877        H  0.32777228  0.41939466  0.57909710     0.16500
H878        H  0.44637869  0.36780042  0.60594130     0.12400
H879        H  0.34126775  0.26171170  0.73368564     0.15300
H880        H  0.22045988  0.30853390  0.69936210     0.15100
C881        C  0.69408760  0.37711012  0.27970116    -0.17800
C882        C  0.66881627  0.39999605  0.30211657    -0.20000
C883        C  0.64208514  0.38921337  0.33564496     0.20700
C884        C  0.64053354  0.35505939  0.34653646    -0.02900
C885        C  0.66634933  0.33195005  0.32401161    -0.06000
C886        C  0.69322280  0.34311698  0.29064172     0.20900
C887        C  0.66512759  0.29775863  0.33471040     0.19100
C888        C  0.63718670  0.28691654  0.36732461    -0.17500
C889        C  0.61174932  0.30985983  0.38991732    -0.19700
C890        C  0.61348886  0.34404515  0.38007304     0.20600
C891        C  0.58907220  0.36742579  0.40335188    -0.32700
C892        C  0.59125565  0.40166169  0.39326270     0.01300
C893        C  0.61732559  0.41212432  0.35874226    -0.24000
C894        C  0.71897900  0.32028099  0.26863121    -0.28600
C895        C  0.72123961  0.28620868  0.28098849     0.07000
C896        C  0.69225565  0.27516671  0.31306359    -0.27300
H897        H  0.71470084  0.38606630  0.25409015     0.11700
H898        H  0.67036334  0.42615883  0.29338067     0.12800
H899        H  0.63541853  0.26072071  0.37577623     0.11900
H900        H  0.59093212  0.30087805  0.41532935     0.11100
H901        H  0.56900435  0.35902543  0.42970107     0.16500
H902        H  0.61894788  0.43830894  0.35005663     0.12400
H903        H  0.73669357  0.32966575  0.24131912     0.15300
H904        H  0.69129352  0.24893555  0.32150951     0.15100
C905        C  0.37571163  0.64692852  0.28139088    -0.17800
C906        C  0.35053746  0.66938143  0.25794184    -0.20000
C907        C  0.32701617  0.69419501  0.27925946     0.20700
C908        C  0.33024993  0.69757725  0.32432400    -0.02900
C909        C  0.35637953  0.67527399  0.34800687    -0.06000
C910        C  0.37810164  0.64923669  0.32644094     0.20900
C911        C  0.35951088  0.67823429  0.39327080     0.19100
C912        C  0.33739263  0.70410699  0.41422498    -0.17500
C913        C  0.31106075  0.72603813  0.39068444    -0.19700
C914        C  0.30656944  0.72259733  0.34574161     0.20600
C915        C  0.27812200  0.74307141  0.32198424    -0.32700
C916        C  0.27242063  0.73826195  0.27702879     0.01300
C917        C  0.29921292  0.71485202  0.25616359    -0.24000
C918        C  0.40056196  0.62523962  0.35034042    -0.28600
C919        C  0.40252129  0.62730601  0.39544013     0.07000
C920        C  0.38334792  0.65449634  0.41672759    -0.27300
H921        H  0.39259457  0.62732935  0.26436321     0.11700
H922        H  0.34845296  0.66671652  0.22319922     0.12800
H923        H  0.33957180  0.70685011  0.44895421     0.11900
H924        H  0.29349157  0.74523710  0.40776668     0.11100
H925        H  0.26092948  0.76253938  0.33873728     0.16500
H926        H  0.29668774  0.71168661  0.22149192     0.12400
H927        H  0.41603263  0.60459592  0.33394531     0.15300
H928        H  0.38509538  0.65613958  0.45161883     0.15100
C929        C  0.73590198  0.66167285  0.35522240    -0.17800
C930        C  0.71154166  0.63994991  0.38058047    -0.20000
C931        C  0.66651642  0.64246024  0.38112741     0.20700
C932        C  0.64577958  0.66699252  0.35587840    -0.02900
C933        C  0.67034172  0.68839562  0.32960218    -0.06000
C934        C  0.71554724  0.68583893  0.32949260     0.20900
C935        C  0.64959868  0.71210066  0.30319277     0.19100
C936        C  0.60452820  0.71440994  0.30347153    -0.17500
C937        C  0.58019267  0.69369660  0.33021149    -0.19700
C938        C  0.60047970  0.66994818  0.35657049     0.20600
C939        C  0.57626396  0.64864686  0.38292204    -0.32700
C940        C  0.59676389  0.62369392  0.40714154     0.01300
C941        C  0.64178494  0.62062372  0.40603444    -0.24000
C942        C  0.73966757  0.70750868  0.30375761    -0.28600
C943        C  0.71962324  0.73221886  0.27797169     0.07000
C944        C  0.67409806  0.73316885  0.27694001    -0.27300
H945        H  0.77064833  0.65944852  0.35554140     0.11700
H946        H  0.72791307  0.62126457  0.39987331     0.12800
H947        H  0.58808688  0.73247940  0.28327719     0.11900
H948        H  0.54547156  0.69610274  0.33005852     0.11100
H949        H  0.54144320  0.65037297  0.38303090     0.16500
H950        H  0.65744784  0.60099751  0.42439974     0.12400
H951        H  0.77446686  0.70557531  0.30408105     0.15300
H952        H  0.65698784  0.74992420  0.25566850     0.15100
C953        C  0.67082909  0.29272909  0.60454819    -0.17800
C954        C  0.64818635  0.31661297  0.58027446    -0.20000
C955        C  0.62834466  0.34388990  0.60062569     0.20700
C956        C  0.63099770  0.34677264  0.64595458    -0.02900
C957        C  0.65327039  0.32246102  0.67039773    -0.06000
C958        C  0.67390893  0.29555114  0.64966684     0.20900
C959        C  0.65514377  0.32533648  0.71562337     0.19100
C960        C  0.63481003  0.35213592  0.73622830    -0.17500
C961        C  0.61358645  0.37651583  0.71206906    -0.19700
C962        C  0.61173129  0.37416537  0.66698590     0.20600
C963        C  0.59096543  0.39884581  0.64270972    -0.32700
C964        C  0.58784677  0.39624652  0.59766674     0.01300
C965        C  0.60613085  0.36845812  0.57669612    -0.24000
C966        C  0.69807175  0.27253311  0.67428050    -0.28600
C967        C  0.70280698  0.27671086  0.71942119     0.07000
C968        C  0.67860292  0.30212237  0.73959884    -0.27300
H969        H  0.68632807  0.27223172  0.58795847     0.11700
H970        H  0.64656680  0.31392039  0.54552014     0.12800
H971        H  0.63605275  0.35460515  0.77103087     0.11900
H972        H  0.59870925  0.39728917  0.72866037     0.11100
H973        H  0.57655797  0.42000042  0.65898912     0.16500
H974        H  0.60394352  0.36643433  0.54186944     0.12400
H975        H  0.71325831  0.25187560  0.65794373     0.15300
H976        H  0.68054088  0.30509840  0.77433457     0.15100
C977        C  0.35549636  0.66631965  0.74413807    -0.17800
C978        C  0.37887721  0.64338481  0.71957682    -0.20000
C979        C  0.37760565  0.64473023  0.67433423     0.20700
C980        C  0.35368965  0.67010306  0.65367781    -0.02900
C981        C  0.32913817  0.69260485  0.67847197    -0.06000
C982        C  0.32978619  0.69052681  0.72383924     0.20900
C983        C  0.30295291  0.71644605  0.65776083     0.19100
C984        C  0.30313772  0.71875183  0.61254888    -0.17500
C985        C  0.32859482  0.69723754  0.58800919    -0.19700
C986        C  0.35331408  0.67241366  0.60820683     0.20600
C987        C  0.37644861  0.64915278  0.58372886    -0.32700
C988        C  0.39805259  0.62265396  0.60407490     0.01300
C989        C  0.39893249  0.62074201  0.64934126    -0.24000
C990        C  0.30426679  0.71231435  0.74812721    -0.28600
C991        C  0.27758727  0.73647197  0.72806800     0.07000
C992        C  0.27654997  0.73732997  0.68237083    -0.27300
H993        H  0.35673835  0.66462712  0.77901489     0.11700
H994        H  0.39757631  0.62436455  0.73596327     0.12800
H995        H  0.28348356  0.73717313  0.59612630     0.11900
H996        H  0.32804566  0.69943737  0.55316259     0.11100
H997        H  0.37590072  0.65063878  0.54878642     0.16500
H998        H  0.41620862  0.60055163  0.66499530     0.12400
H999        H  0.30496940  0.71058196  0.78303843     0.15300
H1000       H  0.25489039  0.75362297  0.66509196     0.15100
C1001       C  0.24852708  0.35648443  0.35443590    -0.17800
C1002       C  0.27282730  0.38042792  0.37648639    -0.20000
C1003       C  0.31756320  0.37689085  0.38037428     0.20700
C1004       C  0.33777952  0.34820148  0.36346738    -0.02900
C1005       C  0.31331893  0.32440608  0.34027405    -0.06000
C1006       C  0.26866994  0.32892136  0.33533441     0.20900
C1007       C  0.33358290  0.29651142  0.32143192     0.19100
C1008       C  0.37789839  0.29170645  0.32816611    -0.17500
C1009       C  0.40209915  0.31503090  0.35179456    -0.19700
C1010       C  0.38250842  0.34374801  0.36876337     0.20600
C1011       C  0.40686220  0.36849788  0.38995118    -0.32700
C1012       C  0.38720655  0.39812725  0.40441857     0.01300
C1013       C  0.34247274  0.40186375  0.40007790    -0.24000
C1014       C  0.24496406  0.30647959  0.31023573    -0.28600
C1015       C  0.26511593  0.28028460  0.28747479     0.07000
C1016       C  0.30938425  0.27443206  0.29549097    -0.27300
H1017       H  0.21410176  0.36005163  0.35121668     0.11700
H1018       H  0.25670381  0.40199776  0.38990387     0.12800
H1019       H  0.39401942  0.27023891  0.31446535     0.11900
H1020       H  0.43635031  0.31101630  0.35588620     0.11100
H1021       H  0.44132146  0.36532913  0.39371310     0.16500
H1022       H  0.32706299  0.42423709  0.41217196     0.12400
H1023       H  0.21062783  0.31035817  0.30643872     0.15300
H1024       H  0.32522891  0.25285699  0.28195219     0.15100
loop_ 
_geom_bond_atom_site_label_1 
_geom_bond_atom_site_label_2 
_geom_bond_distance 
_geom_bond_site_symmetry_2 
_ccdc_geom_bond_type 
O1          Zr13   2.445       .  S
O1            C3   1.288       .  A
O2          Zr39   2.430       .  S
O2            C3   1.287       .  A
C3          C868   1.477       .  S
O4          Zr16   2.459       .  S
O4            C6   1.291       .  A
O5          Zr40   2.408       .  S
O5            C6   1.283       .  A
C6          C919   1.472       .  S
O7          Zr16   2.466       .  S
O7            C9   1.294       .  A
O8          Zr39   2.418       .  S
O8            C9   1.285       .  A
C9         C1012   1.481       .  S
O10         Zr13   2.450       .  S
O10          C12   1.289       .  A
O11         Zr40   2.419       .  S
O11          C12   1.285       .  A
C12         C988   1.473       .  S
Zr13         O14   2.435       .  S
Zr13         O15   2.436       .  S
Zr13         O19   2.366       .  S
Zr13         O20   2.370       .  S
Zr13         O43   2.370       .  S
Zr13         O45   2.379       .  S
O14          H57   0.990       .  S
O15          H56   0.990       .  S
O15          H60   0.990       .  S
Zr16         O17   2.436       .  S
Zr16         O18   2.436       .  S
Zr16         O20   2.376       .  S
Zr16         O19   2.371       .  S
Zr16         O44   2.372       .  S
Zr16         O46   2.370       .  S
O17          H58   0.990       .  S
O17          H61   0.990       .  S
O18          H51   0.990       .  S
O19         Zr39   2.387       .  S
O20         Zr40   2.389       .  S
O20          H47   0.966       .  S
O21         Zr33   2.455       .  S
O21          C23   1.291       .  A
O22         Zr40   2.419       .  S
O22          C23   1.284       .  A
C23         C844   1.474       .  S
O24         Zr36   2.420       .  S
O24          C26   1.285       .  A
O25         Zr39   2.443       .  S
O25          C26   1.290       .  A
C26         C892   1.485       .  S
O27         Zr36   2.411       .  S
O27          C29   1.282       .  A
O28         Zr40   2.444       .  S
O28          C29   1.290       .  A
C29         C940   1.467       .  S
O30         Zr33   2.452       .  S
O30          C32   1.291       .  A
O31         Zr39   2.428       .  S
O31          C32   1.286       .  A
C32         C964   1.480       .  S
Zr33         O34   2.436       .  S
Zr33         O35   2.434       .  S
Zr33         O41   2.370       .  S
Zr33         O42   2.373       .  S
Zr33         O45   2.373       .  S
Zr33         O43   2.368       .  S
O34          H54   0.990       .  S
O34          H59   0.990       .  S
O35          H55   0.990       .  S
Zr36         O37   2.434       .  S
Zr36         O38   2.435       .  S
Zr36         O42   2.367       .  S
Zr36         O41   2.372       .  S
Zr36         O46   2.366       .  S
Zr36         O44   2.369       .  S
O37          H53   0.990       .  S
O38          H52   0.990       .  S
O38          H62   0.990       .  S
Zr39         O42   2.377       .  S
Zr39         O44   2.386       .  S
Zr39         O45   2.395       .  S
Zr40         O41   2.385       .  S
Zr40         O43   2.382       .  S
Zr40         O46   2.378       .  S
O41          H49   0.967       .  S
O44          H48   0.966       .  S
O45          H50   0.964       .  S
O63         Zr75   2.441       .  S
O63          C65   1.289       .  A
O64        Zr101   2.437       .  S
O64          C65   1.289       .  A
C65         C820   1.488       .  S
O66         Zr78   2.428       .  S
O66          C68   1.285       .  A
O67        Zr102   2.440   1_455  S
O67          C68   1.289       .  A
C68         C724   1.472       .  S
O69         Zr78   2.441       .  S
O69          C71   1.289       .  A
O70        Zr101   2.441   1_455  S
O70          C71   1.290       .  A
C71         C772   1.476       .  S
O72         Zr75   2.437       .  S
O72          C74   1.288       .  A
O73        Zr102   2.443       .  S
O73          C74   1.290       .  A
C74         C751   1.490       .  S
Zr75         O76   2.435       .  S
Zr75         O77   2.438       .  S
Zr75         O81   2.372       .  S
Zr75         O82   2.371       .  S
Zr75        O105   2.371       .  S
Zr75        O107   2.368       .  S
O76         H119   0.990       .  S
O77         H118   0.990       .  S
O77         H122   0.990       .  S
Zr78         O79   2.438       .  S
Zr78         O80   2.432       .  S
Zr78         O82   2.369   1_455  S
Zr78         O81   2.373   1_455  S
Zr78        O106   2.373       .  S
Zr78        O108   2.374       .  S
O79         H120   0.990       .  S
O79         H123   0.990       .  S
O80         H113   0.990       .  S
O81        Zr101   2.391       .  S
O82        Zr102   2.390       .  S
O82         H109   0.966       .  S
O83         Zr95   2.436       .  S
O83          C85   1.287       .  A
O84        Zr102   2.429   1_554  S
O84          C85   1.287       .  A
C85         C700   1.468       .  S
O86         Zr98   2.445       .  S
O86          C88   1.290       .  A
O87        Zr101   2.438   1_454  S
O87          C88   1.289       .  A
C88         C655   1.488       .  S
O89         Zr98   2.444       .  S
O89          C91   1.290       .  A
O90        Zr102   2.445   1_454  S
O90          C91   1.290       .  A
C91         C679   1.492       .  S
O92         Zr95   2.433       .  S
O92          C94   1.287       .  A
O93        Zr101   2.443   1_554  S
O93          C94   1.289       .  A
C94         C796   1.476       .  S
Zr95         O96   2.436       .  S
Zr95         O97   2.434       .  S
Zr95        O103   2.365       .  S
Zr95        O104   2.366       .  S
Zr95        O107   2.372   1_554  S
Zr95        O105   2.372   1_554  S
O96         H116   0.990       .  S
O96         H121   0.991       .  S
O97         H117   0.990       .  S
Zr98         O99   2.435       .  S
Zr98        O100   2.436       .  S
Zr98        O104   2.372   1_455  S
Zr98        O103   2.370   1_455  S
Zr98        O108   2.369   1_554  S
Zr98        O106   2.365   1_554  S
O99         H115   0.990       .  S
O100        H114   0.990       .  S
O100        H124   0.990       .  S
Zr101       O104   2.386   1_556  S
Zr101       O106   2.392   1_655  S
Zr101       O107   2.389       .  S
Zr102       O103   2.388   1_556  S
Zr102       O105   2.391       .  S
Zr102       O108   2.383   1_655  S
O103        H111   0.966       .  S
O106        H110   0.966       .  S
O107        H112   0.968       .  S
C125        C607   1.558       .  S
C125        C628   1.555       .  S
C125        C823   1.561       .  S
C125        C967   1.554       .  S
O126       Zr138   2.447       .  S
O126        C128   1.289       .  A
O127       Zr164   2.434   1_556  S
O127        C128   1.288       .  A
C128        C631   1.476       .  S
O129       Zr141   2.444   1_565  S
O129        C131   1.289       .  A
O130       Zr165   2.425   1_556  S
O130        C131   1.286       .  A
C131        C580   1.473       .  S
O132       Zr141   2.430       .  S
O132        C134   1.286       .  A
O133       Zr164   2.429   1_556  S
O133        C134   1.287       .  A
C134        C532   1.468       .  S
O135       Zr138   2.452   1_565  S
O135        C137   1.292       .  A
O136       Zr165   2.417   1_556  S
O136        C137   1.285       .  A
C137        C508   1.487       .  S
Zr138       O139   2.434       .  S
Zr138       O140   2.436       .  S
Zr138       O144   2.366       .  S
Zr138       O145   2.371   1_545  S
Zr138       O168   2.370   1_546  S
Zr138       O170   2.371   1_556  S
O139        H182   0.990       .  S
O140        H181   0.990       .  S
O140        H185   0.990       .  S
Zr141       O142   2.436       .  S
Zr141       O143   2.435       .  S
Zr141       O145   2.363   1_545  S
Zr141       O144   2.364       .  S
Zr141       O169   2.372   1_556  S
Zr141       O171   2.368   1_546  S
O142        H183   0.990   1_545  S
O142        H186   0.990       .  S
O143        H176   0.990       .  S
O144       Zr164   2.381   1_556  S
O145       Zr165   2.386   1_556  S
O145        H172   0.964       .  S
O146       Zr158   2.429   1_565  S
O146        C148   1.286       .  A
O147       Zr165   2.437       .  S
O147        C148   1.288       .  A
C148        C556   1.473       .  S
O149       Zr161   2.431       .  S
O149        C151   1.287       .  A
O150       Zr164   2.432       .  S
O150        C151   1.288       .  A
C151        C460   1.483       .  S
O152       Zr161   2.438   1_565  S
O152        C154   1.289       .  A
O153       Zr165   2.429       .  S
O153        C154   1.286       .  A
C154        C487   1.472       .  S
O155       Zr158   2.423       .  S
O155        C157   1.286       .  A
O156       Zr164   2.436       .  S
O156        C157   1.289       .  A
C157        C439   1.482       .  S
Zr158       O159   2.435       .  S
Zr158       O160   2.434       .  S
Zr158       O166   2.368   1_545  S
Zr158       O167   2.369       .  S
Zr158       O170   2.372       .  S
Zr158       O168   2.369   1_545  S
O159        H179   0.990   1_545  S
O159        H184   0.990       .  S
O160        H180   0.990   1_545  S
Zr161       O162   2.433       .  S
Zr161       O163   2.436       .  S
Zr161       O167   2.371       .  S
Zr161       O166   2.370   1_545  S
Zr161       O171   2.366   1_545  S
Zr161       O169   2.367       .  S
O162        H178   0.990       .  S
O163        H177   0.990   1_545  S
O163        H187   0.990   1_545  S
Zr164       O167   2.380       .  S
Zr164       O169   2.388       .  S
Zr164       O170   2.386       .  S
Zr165       O166   2.385       .  S
Zr165       O168   2.384       .  S
Zr165       O171   2.383       .  S
O166        H174   0.967       .  S
O169        H173   0.964       .  S
O170        H175   0.965       .  S
C188        C412   1.562       .  S
C188        C583   1.563       .  S
C188        C727   1.560       .  S
C188        C991   1.557       .  S
O189       Zr201   2.462       .  S
O189        C191   1.292       .  A
O190       Zr227   2.415       .  S
O190        C191   1.284       .  A
C191        C388   1.476       .  S
O192       Zr204   2.451   1_565  S
O192        C194   1.290       .  A
O193       Zr228   2.431       .  S
O193        C194   1.286       .  A
C194        C316   1.478       .  S
O195       Zr204   2.437       .  S
O195        C197   1.288       .  A
O196       Zr227   2.448       .  S
O196        C197   1.291       .  A
C197        C604   1.493       .  S
O198       Zr201   2.451   1_565  S
O198        C200   1.290       .  A
O199       Zr228   2.425       .  S
O199        C200   1.287       .  A
C200        C364   1.473       .  S
Zr201       O202   2.435       .  S
Zr201       O203   2.436       .  S
Zr201       O207   2.375       .  S
Zr201       O208   2.380   1_545  S
Zr201       O231   2.371   1_545  S
Zr201       O233   2.364       .  S
O202        H245   0.990       .  S
O203        H244   0.990       .  S
O203        H248   0.990       .  S
Zr204       O205   2.437       .  S
Zr204       O206   2.435       .  S
Zr204       O208   2.366   1_545  S
Zr204       O207   2.375       .  S
Zr204       O232   2.374       .  S
Zr204       O234   2.372   1_545  S
O205        H246   0.990   1_545  S
O205        H249   0.990       .  S
O206        H239   0.990   1_545  S
O207       Zr227   2.385       .  S
O208       Zr228   2.390       .  S
O208        H235   0.967       .  S
O209       Zr221   2.441   1_565  S
O209        C211   1.289       .  A
O210       Zr228   2.428   1_455  S
O210        C211   1.287       .  A
C211        C343   1.486       .  S
O212       Zr224   2.441       .  S
O212        C214   1.288       .  A
O213       Zr227   2.429   1_455  S
O213        C214   1.287       .  A
C214        C268   1.475       .  S
O215       Zr224   2.429   1_565  S
O215        C217   1.285       .  A
O216       Zr228   2.440   1_455  S
O216        C217   1.289       .  A
C217        C415   1.471       .  S
O218       Zr221   2.437       .  S
O218        C220   1.288       .  A
O219       Zr227   2.434   1_455  S
O219        C220   1.288       .  A
C220        C295   1.475       .  S
Zr221       O222   2.435       .  S
Zr221       O223   2.435       .  S
Zr221       O229   2.366   1_545  S
Zr221       O230   2.375       .  S
Zr221       O233   2.367   1_455  S
Zr221       O231   2.366   1_445  S
O222        H242   0.990       .  S
O222        H247   0.990       .  S
O223        H243   0.990   1_545  S
Zr224       O225   2.435       .  S
Zr224       O226   2.434       .  S
Zr224       O230   2.367       .  S
Zr224       O229   2.372   1_545  S
Zr224       O234   2.374   1_445  S
Zr224       O232   2.370   1_455  S
O225        H241   0.990       .  S
O226        H240   0.990       .  S
O226        H250   0.990       .  S
Zr227       O230   2.387   1_655  S
Zr227       O232   2.382       .  S
Zr227       O233   2.391       .  S
Zr228       O229   2.386   1_655  S
Zr228       O231   2.389       .  S
Zr228       O234   2.379       .  S
O229        H237   0.966       .  S
O232        H236   0.966       .  S
O233        H238   0.966       .  S
C251        C367   1.558       .  S
C251        C559   1.556       .  S
C251        C703   1.555       .  S
C251        C943   1.552       .  S
C252        C292   1.553       .  S
C252        C463   1.552       .  S
C252        C652   1.559       .  S
C252       C1015   1.553       .  S
C253        C391   1.552       .  S
C253        C436   1.560       .  S
C253        C799   1.556       .  S
C253        C895   1.559       .  S
C254        C340   1.556       .  S
C254        C484   1.554       .  S
C254        C676   1.555       .  S
C254        C916   1.554       .  S
C255        C271   1.564       .  S
C255        C535   1.562       .  S
C255        C775   1.560       .  S
C255        C871   1.564       .  S
C256        C319   1.558       .  S
C256        C511   1.560       .  S
C256        C748   1.558       .  S
C256        C847   1.556       .  S
C257        C258   1.399       .  A
C257        C262   1.403       .  A
C257        H273   1.084       .  S
C258        C259   1.403       .  A
C258        H274   1.083       .  S
C259        C269   1.403       .  A
C259        C260   1.412       .  A
C260        C266   1.412       .  A
C260        C261   1.414       .  A
C261        C263   1.408       .  A
C261        C262   1.408       .  A
C262        C270   1.402       .  A
C263        C272   1.406       .  A
C263        C264   1.406       .  A
C264        C265   1.400       .  A
C264        H275   1.084       .  S
C265        C266   1.403       .  A
C265        H276   1.084       .  S
C266        C267   1.405       .  A
C267        C268   1.406       .  A
C267        H277   1.085       .  S
C268        C269   1.405       .  A
C269        H278   1.085       .  S
C270        C271   1.417       .  A
C270        H279   1.084       .  S
C271        C272   1.420       .  A
C272        H280   1.078       .  S
C281        C282   1.402       .  A
C281        C286   1.405       .  A
C281        H297   1.083       .  S
C282        C283   1.404       .  A
C282        H298   1.083       .  S
C283        C293   1.409       .  A
C283        C284   1.412       .  A
C284        C290   1.407       .  A
C284        C285   1.412       .  A
C285        C287   1.412       .  A
C285        C286   1.411       .  A
C286        C294   1.407       .  A
C287        C296   1.400       .  A
C287        C288   1.402       .  A
C288        C289   1.397       .  A
C288        H299   1.084       .  S
C289        C290   1.404       .  A
C289        H300   1.084       .  S
C290        C291   1.396       .  A
C291        C292   1.417       .  A
C291        H301   1.084       .  S
C292        C293   1.413       .  A
C293        H302   1.081       .  S
C294        C295   1.407       .  A
C294        H303   1.084       .  S
C295        C296   1.405       .  A
C296        H304   1.085       .  S
C305        C306   1.396       .  A
C305        C310   1.402       .  A
C305        H321   1.084       .  S
C306        C307   1.402       .  A
C306        H322   1.083       .  S
C307        C317   1.399       .  A
C307        C308   1.411       .  A
C308        C314   1.413       .  A
C308        C309   1.413       .  A
C309        C311   1.410       .  A
C309        C310   1.408       .  A
C310        C318   1.397       .  A
C311        C320   1.409       .  A
C311        C312   1.406       .  A
C312        C313   1.404       .  A
C312        H323   1.084       .  S
C313        C314   1.406       .  A
C313        H324   1.084       .  S
C314        C315   1.410       .  A
C315        C316   1.409       .  A
C315        H325   1.084       .  S
C316        C317   1.403       .  A
C317        H326   1.085       .  S
C318        C319   1.413       .  A
C318        H327   1.085       .  S
C319        C320   1.419       .  A
C320        H328   1.079       .  S
C329        C330   1.394       .  A
C329        C334   1.401       .  A
C329        H345   1.084       .  S
C330        C331   1.402       .  A
C330        H346   1.084       .  S
C331        C341   1.393       .  A
C331        C332   1.406       .  A
C332        C338   1.411       .  A
C332        C333   1.412       .  A
C333        C335   1.410       .  A
C333        C334   1.411       .  A
C334        C342   1.397       .  A
C335        C344   1.409       .  A
C335        C336   1.406       .  A
C336        C337   1.404       .  A
C336        H347   1.083       .  S
C337        C338   1.405       .  A
C337        H348   1.083       .  S
C338        C339   1.411       .  A
C339        C340   1.416       .  A
C339        H349   1.084       .  S
C340        C341   1.417       .  A
C341        H350   1.081       .  S
C342        C343   1.407       .  A
C342        H351   1.084       .  S
C343        C344   1.411       .  A
C344        H352   1.084       .  S
C353        C354   1.399       .  A
C353        C358   1.405       .  A
C353        H369   1.084       .  S
C354        C355   1.403       .  A
C354        H370   1.084       .  S
C355        C365   1.404       .  A
C355        C356   1.412       .  A
C356        C362   1.412       .  A
C356        C357   1.412       .  A
C357        C359   1.408       .  A
C357        C358   1.409       .  A
C358        C366   1.403       .  A
C359        C368   1.400       .  A
C359        C360   1.403       .  A
C360        C361   1.399       .  A
C360        H371   1.084       .  S
C361        C362   1.403       .  A
C361        H372   1.083       .  S
C362        C363   1.403       .  A
C363        C364   1.404       .  A
C363        H373   1.084       .  S
C364        C365   1.405       .  A
C365        H374   1.085       .  S
C366        C367   1.418       .  A
C366        H375   1.079       .  S
C367        C368   1.415       .  A
C368        H376   1.084       .  S
C377        C378   1.403       .  A
C377        C382   1.405       .  A
C377        H393   1.083       .  S
C378        C379   1.405       .  A
C378        H394   1.083       .  S
C379        C389   1.408       .  A
C379        C380   1.411       .  A
C380        C386   1.413       .  A
C380        C381   1.413       .  A
C381        C383   1.406       .  A
C381        C382   1.413       .  A
C382        C390   1.412       .  A
C383        C392   1.393       .  A
C383        C384   1.403       .  A
C384        C385   1.395       .  A
C384        H395   1.084       .  S
C385        C386   1.401       .  A
C385        H396   1.084       .  S
C386        C387   1.400       .  A
C387        C388   1.403       .  A
C387        H397   1.085       .  S
C388        C389   1.408       .  A
C389        H398   1.084       .  S
C390        C391   1.414       .  A
C390        H399   1.081       .  S
C391        C392   1.415       .  A
C392        H400   1.085       .  S
C401        C402   1.399       .  A
C401        C406   1.402       .  A
C401        H417   1.084       .  S
C402        C403   1.405       .  A
C402        H418   1.084       .  S
C403        C413   1.403       .  A
C403        C404   1.407       .  A
C404        C410   1.409       .  A
C404        C405   1.413       .  A
C405        C407   1.411       .  A
C405        C406   1.414       .  A
C406        C414   1.405       .  A
C407        C416   1.402       .  A
C407        C408   1.403       .  A
C408        C409   1.399       .  A
C408        H419   1.084       .  S
C409        C410   1.404       .  A
C409        H420   1.084       .  S
C410        C411   1.403       .  A
C411        C412   1.416       .  A
C411        H421   1.084       .  S
C412        C413   1.419       .  A
C413        H422   1.078       .  S
C414        C415   1.403       .  A
C414        H423   1.085       .  S
C415        C416   1.405       .  A
C416        H424   1.085       .  S
C425        C426   1.402       .  A
C425        C430   1.404       .  A
C425        H441   1.083       .  S
C426        C427   1.405       .  A
C426        H442   1.083       .  S
C427        C437   1.410       .  A
C427        C428   1.411       .  A
C428        C434   1.406       .  A
C428        C429   1.412       .  A
C429        C431   1.411       .  A
C429        C430   1.411       .  A
C430        C438   1.407       .  A
C431        C440   1.397       .  A
C431        C432   1.402       .  A
C432        C433   1.395       .  A
C432        H443   1.084       .  S
C433        C434   1.404       .  A
C433        H444   1.084       .  S
C434        C435   1.395       .  A
C435        C436   1.420       .  A
C435        H445   1.081       .  S
C436        C437   1.415       .  A
C437        H446   1.084       .  S
C438        C439   1.408       .  A
C438        H447   1.084       .  S
C439        C440   1.408       .  A
C440        H448   1.084       .  S
C449        C450   1.401       .  A
C449        C454   1.404       .  A
C449        H465   1.083       .  S
C450        C451   1.404       .  A
C450        H466   1.083       .  S
C451        C461   1.406       .  A
C451        C452   1.411       .  A
C452        C458   1.410       .  A
C452        C453   1.411       .  A
C453        C455   1.408       .  A
C453        C454   1.410       .  A
C454        C462   1.406       .  A
C455        C464   1.397       .  A
C455        C456   1.403       .  A
C456        C457   1.396       .  A
C456        H467   1.084       .  S
C457        C458   1.403       .  A
C457        H468   1.084       .  S
C458        C459   1.398       .  A
C459        C460   1.408       .  A
C459        H469   1.084       .  S
C460        C461   1.408       .  A
C461        H470   1.084       .  S
C462        C463   1.413       .  A
C462        H471   1.083       .  S
C463        C464   1.417       .  A
C464        H472   1.083       .  S
C473        C474   1.393       .  A
C473        C478   1.401       .  A
C473        H489   1.084       .  S
C474        C475   1.401       .  A
C474        H490   1.084       .  S
C475        C485   1.391       .  A
C475        C476   1.407       .  A
C476        C482   1.411       .  A
C476        C477   1.411       .  A
C477        C479   1.412       .  A
C477        C478   1.412       .  A
C478        C486   1.395       .  A
C479        C488   1.410       .  A
C479        C480   1.406       .  A
C480        C481   1.404       .  A
C480        H491   1.083       .  S
C481        C482   1.406       .  A
C481        H492   1.083       .  S
C482        C483   1.411       .  A
C483        C484   1.417       .  A
C483        H493   1.081       .  S
C484        C485   1.413       .  A
C485        H494   1.085       .  S
C486        C487   1.401       .  A
C486        H495   1.085       .  S
C487        C488   1.408       .  A
C488        H496   1.084       .  S
C497        C498   1.397       .  A
C497        C502   1.404       .  A
C497        H513   1.083       .  S
C498        C499   1.402       .  A
C498        H514   1.084       .  S
C499        C509   1.399       .  A
C499        C500   1.411       .  A
C500        C506   1.411       .  A
C500        C501   1.415       .  A
C501        C503   1.410       .  A
C501        C502   1.408       .  A
C502        C510   1.401       .  A
C503        C512   1.410       .  A
C503        C504   1.406       .  A
C504        C505   1.404       .  A
C504        H515   1.083       .  S
C505        C506   1.405       .  A
C505        H516   1.084       .  S
C506        C507   1.409       .  A
C507        C508   1.412       .  A
C507        H517   1.084       .  S
C508        C509   1.406       .  A
C509        H518   1.084       .  S
C510        C511   1.419       .  A
C510        H519   1.081       .  S
C511        C512   1.417       .  A
C512        H520   1.084       .  S
C521        C522   1.398       .  A
C521        C526   1.403       .  A
C521        H537   1.083       .  S
C522        C523   1.403       .  A
C522        H538   1.084       .  S
C523        C533   1.399       .  A
C523        C524   1.410       .  A
C524        C530   1.414       .  A
C524        C525   1.411       .  A
C525        C527   1.406       .  A
C525        C526   1.410       .  A
C526        C534   1.402       .  A
C527        C536   1.401       .  A
C527        C528   1.406       .  A
C528        C529   1.399       .  A
C528        H539   1.084       .  S
C529        C530   1.402       .  A
C529        H540   1.084       .  S
C530        C531   1.404       .  A
C531        C532   1.403       .  A
C531        H541   1.085       .  S
C532        C533   1.404       .  A
C533        H542   1.085       .  S
C534        C535   1.415       .  A
C534        H543   1.084       .  S
C535        C536   1.421       .  A
C536        H544   1.078       .  S
C545        C546   1.398       .  A
C545        C550   1.403       .  A
C545        H561   1.084       .  S
C546        C547   1.403       .  A
C546        H562   1.084       .  S
C547        C557   1.401       .  A
C547        C548   1.411       .  A
C548        C554   1.413       .  A
C548        C549   1.412       .  A
C549        C551   1.409       .  A
C549        C550   1.408       .  A
C550        C558   1.399       .  A
C551        C560   1.404       .  A
C551        C552   1.405       .  A
C552        C553   1.400       .  A
C552        H563   1.084       .  S
C553        C554   1.403       .  A
C553        H564   1.084       .  S
C554        C555   1.405       .  A
C555        C556   1.404       .  A
C555        H565   1.084       .  S
C556        C557   1.405       .  A
C557        H566   1.085       .  S
C558        C559   1.416       .  A
C558        H567   1.084       .  S
C559        C560   1.417       .  A
C560        H568   1.079       .  S
C569        C570   1.400       .  A
C569        C574   1.406       .  A
C569        H585   1.084       .  S
C570        C571   1.403       .  A
C570        H586   1.084       .  S
C571        C581   1.406       .  A
C571        C572   1.413       .  A
C572        C578   1.411       .  A
C572        C573   1.414       .  A
C573        C575   1.410       .  A
C573        C574   1.407       .  A
C574        C582   1.404       .  A
C575        C584   1.405       .  A
C575        C576   1.404       .  A
C576        C577   1.399       .  A
C576        H587   1.083       .  S
C577        C578   1.403       .  A
C577        H588   1.084       .  S
C578        C579   1.402       .  A
C579        C580   1.404       .  A
C579        H589   1.085       .  S
C580        C581   1.405       .  A
C581        H590   1.085       .  S
C582        C583   1.421       .  A
C582        H591   1.078       .  S
C583        C584   1.416       .  A
C584        H592   1.084       .  S
C593        C594   1.398       .  A
C593        C598   1.404       .  A
C593        H609   1.084       .  S
C594        C595   1.403       .  A
C594        H610   1.084       .  S
C595        C605   1.402       .  A
C595        C596   1.410       .  A
C596        C602   1.412       .  A
C596        C597   1.415       .  A
C597        C599   1.409       .  A
C597        C598   1.408       .  A
C598        C606   1.401       .  A
C599        C608   1.408       .  A
C599        C600   1.404       .  A
C600        C601   1.402       .  A
C600        H611   1.083       .  S
C601        C602   1.405       .  A
C601        H612   1.083       .  S
C602        C603   1.410       .  A
C603        C604   1.411       .  A
C603        H613   1.084       .  S
C604        C605   1.411       .  A
C605        H614   1.084       .  S
C606        C607   1.419       .  A
C606        H615   1.081       .  S
C607        C608   1.415       .  A
C608        H616   1.084       .  S
C617        C618   1.402       .  A
C617        C622   1.405       .  A
C617        H633   1.083       .  S
C618        C619   1.405       .  A
C618        H634   1.084       .  S
C619        C629   1.407       .  A
C619        C620   1.410       .  A
C620        C626   1.408       .  A
C620        C621   1.412       .  A
C621        C623   1.412       .  A
C621        C622   1.412       .  A
C622        C630   1.408       .  A
C623        C632   1.401       .  A
C623        C624   1.403       .  A
C624        C625   1.398       .  A
C624        H635   1.084       .  S
C625        C626   1.403       .  A
C625        H636   1.084       .  S
C626        C627   1.398       .  A
C627        C628   1.416       .  A
C627        H637   1.085       .  S
C628        C629   1.415       .  A
C629        H638   1.080       .  S
C630        C631   1.406       .  A
C630        H639   1.084       .  S
C631        C632   1.404       .  A
C632        H640   1.085       .  S
C641        C642   1.396       .  A
C641        C646   1.402       .  A
C641        H657   1.084       .  S
C642        C643   1.403       .  A
C642        H658   1.084       .  S
C643        C653   1.398       .  A
C643        C644   1.407       .  A
C644        C650   1.410       .  A
C644        C645   1.416       .  A
C645        C647   1.412       .  A
C645        C646   1.411       .  A
C646        C654   1.399       .  A
C647        C656   1.413       .  A
C647        C648   1.406       .  A
C648        C649   1.406       .  A
C648        H659   1.083       .  S
C649        C650   1.407       .  A
C649        H660   1.083       .  S
C650        C651   1.414       .  A
C651        C652   1.418       .  A
C651        H661   1.083       .  S
C652        C653   1.417       .  A
C653        H662   1.083       .  S
C654        C655   1.407       .  A
C654        H663   1.085       .  S
C655        C656   1.412       .  A
C656        H664   1.084       .  S
C665        C666   1.405       .  A
C665        C670   1.406       .  A
C665        H681   1.083       .  S
C666        C667   1.406       .  A
C666        H682   1.083       .  S
C667        C677   1.411       .  A
C667        C668   1.410       .  A
C668        C674   1.407       .  A
C668        C669   1.415       .  A
C669        C671   1.410       .  A
C669        C670   1.412       .  A
C670        C678   1.413       .  A
C671        C680   1.399       .  A
C671        C672   1.402       .  A
C672        C673   1.395       .  A
C672        H683   1.084       .  S
C673        C674   1.402       .  A
C673        H684   1.084       .  S
C674        C675   1.397       .  A
C675        C676   1.416       .  A
C675        H685   1.082       .  S
C676        C677   1.416       .  A
C677        H686   1.084       .  S
C678        C679   1.412       .  A
C678        H687   1.084       .  S
C679        C680   1.409       .  A
C680        H688   1.084       .  S
C689        C690   1.401       .  A
C689        C694   1.405       .  A
C689        H705   1.084       .  S
C690        C691   1.404       .  A
C690        H706   1.084       .  S
C691        C701   1.403       .  A
C691        C692   1.411       .  A
C692        C698   1.413       .  A
C692        C693   1.411       .  A
C693        C695   1.408       .  A
C693        C694   1.409       .  A
C694        C702   1.404       .  A
C695        C704   1.398       .  A
C695        C696   1.403       .  A
C696        C697   1.396       .  A
C696        H707   1.084       .  S
C697        C698   1.401       .  A
C697        H708   1.084       .  S
C698        C699   1.400       .  A
C699        C700   1.401       .  A
C699        H709   1.085       .  S
C700        C701   1.405       .  A
C701        H710   1.084       .  S
C702        C703   1.418       .  A
C702        H711   1.084       .  S
C703        C704   1.415       .  A
C704        H712   1.079       .  S
C713        C714   1.400       .  A
C713        C718   1.405       .  A
C713        H729   1.083       .  S
C714        C715   1.403       .  A
C714        H730   1.084       .  S
C715        C725   1.406       .  A
C715        C716   1.413       .  A
C716        C722   1.412       .  A
C716        C717   1.413       .  A
C717        C719   1.408       .  A
C717        C718   1.410       .  A
C718        C726   1.407       .  A
C719        C728   1.401       .  A
C719        C720   1.404       .  A
C720        C721   1.399       .  A
C720        H731   1.084       .  S
C721        C722   1.403       .  A
C721        H732   1.084       .  S
C722        C723   1.402       .  A
C723        C724   1.405       .  A
C723        H733   1.085       .  S
C724        C725   1.404       .  A
C725        H734   1.085       .  S
C726        C727   1.417       .  A
C726        H735   1.080       .  S
C727        C728   1.417       .  A
C728        H736   1.084       .  S
C737        C738   1.396       .  A
C737        C742   1.403       .  A
C737        H753   1.084       .  S
C738        C739   1.403       .  A
C738        H754   1.084       .  S
C739        C749   1.396       .  A
C739        C740   1.406       .  A
C740        C746   1.411       .  A
C740        C741   1.413       .  A
C741        C743   1.411       .  A
C741        C742   1.411       .  A
C742        C750   1.400       .  A
C743        C752   1.409       .  A
C743        C744   1.405       .  A
C744        C745   1.403       .  A
C744        H755   1.083       .  S
C745        C746   1.405       .  A
C745        H756   1.083       .  S
C746        C747   1.410       .  A
C747        C748   1.415       .  A
C747        H757   1.084       .  S
C748        C749   1.418       .  A
C749        H758   1.081       .  S
C750        C751   1.410       .  A
C750        H759   1.084       .  S
C751        C752   1.410       .  A
C752        H760   1.084       .  S
C761        C762   1.400       .  A
C761        C766   1.404       .  A
C761        H777   1.084       .  S
C762        C763   1.404       .  A
C762        H778   1.083       .  S
C763        C773   1.404       .  A
C763        C764   1.411       .  A
C764        C770   1.413       .  A
C764        C765   1.413       .  A
C765        C767   1.408       .  A
C765        C766   1.408       .  A
C766        C774   1.402       .  A
C767        C776   1.401       .  A
C767        C768   1.404       .  A
C768        C769   1.398       .  A
C768        H779   1.084       .  S
C769        C770   1.402       .  A
C769        H780   1.083       .  S
C770        C771   1.404       .  A
C771        C772   1.404       .  A
C771        H781   1.084       .  S
C772        C773   1.407       .  A
C773        H782   1.084       .  S
C774        C775   1.418       .  A
C774        H783   1.084       .  S
C775        C776   1.416       .  A
C776        H784   1.077       .  S
C785        C786   1.398       .  A
C785        C790   1.404       .  A
C785        H801   1.084       .  S
C786        C787   1.403       .  A
C786        H802   1.084       .  S
C787        C797   1.401       .  A
C787        C788   1.411       .  A
C788        C794   1.412       .  A
C788        C789   1.413       .  A
C789        C791   1.411       .  A
C789        C790   1.407       .  A
C790        C798   1.398       .  A
C791        C800   1.408       .  A
C791        C792   1.404       .  A
C792        C793   1.402       .  A
C792        H803   1.083       .  S
C793        C794   1.404       .  A
C793        H804   1.083       .  S
C794        C795   1.408       .  A
C795        C796   1.406       .  A
C795        H805   1.084       .  S
C796        C797   1.405       .  A
C797        H806   1.085       .  S
C798        C799   1.417       .  A
C798        H807   1.085       .  S
C799        C800   1.414       .  A
C800        H808   1.080       .  S
C809        C810   1.396       .  A
C809        C814   1.403       .  A
C809        H825   1.084       .  S
C810        C811   1.402       .  A
C810        H826   1.084       .  S
C811        C821   1.399       .  A
C811        C812   1.411       .  A
C812        C818   1.411       .  A
C812        C813   1.414       .  A
C813        C815   1.411       .  A
C813        C814   1.407       .  A
C814        C822   1.397       .  A
C815        C824   1.412       .  A
C815        C816   1.405       .  A
C816        C817   1.404       .  A
C816        H827   1.083       .  S
C817        C818   1.406       .  A
C817        H828   1.083       .  S
C818        C819   1.411       .  A
C819        C820   1.411       .  A
C819        H829   1.084       .  S
C820        C821   1.408       .  A
C821        H830   1.084       .  S
C822        C823   1.418       .  A
C822        H831   1.082       .  S
C823        C824   1.416       .  A
C824        H832   1.084       .  S
C833        C834   1.393       .  A
C833        C838   1.402       .  A
C833        H849   1.084       .  S
C834        C835   1.400       .  A
C834        H850   1.084       .  S
C835        C845   1.396       .  A
C835        C836   1.412       .  A
C836        C842   1.412       .  A
C836        C837   1.412       .  A
C837        C839   1.411       .  A
C837        C838   1.407       .  A
C838        C846   1.392       .  A
C839        C848   1.412       .  A
C839        C840   1.406       .  A
C840        C841   1.405       .  A
C840        H851   1.084       .  S
C841        C842   1.406       .  A
C841        H852   1.083       .  S
C842        C843   1.411       .  A
C843        C844   1.410       .  A
C843        H853   1.084       .  S
C844        C845   1.400       .  A
C845        H854   1.085       .  S
C846        C847   1.414       .  A
C846        H855   1.084       .  S
C847        C848   1.417       .  A
C848        H856   1.080       .  S
C857        C858   1.400       .  A
C857        C862   1.405       .  A
C857        H873   1.084       .  S
C858        C859   1.403       .  A
C858        H874   1.084       .  S
C859        C869   1.405       .  A
C859        C860   1.412       .  A
C860        C866   1.411       .  A
C860        C861   1.413       .  A
C861        C863   1.408       .  A
C861        C862   1.408       .  A
C862        C870   1.405       .  A
C863        C872   1.402       .  A
C863        C864   1.404       .  A
C864        C865   1.399       .  A
C864        H875   1.084       .  S
C865        C866   1.403       .  A
C865        H876   1.084       .  S
C866        C867   1.403       .  A
C867        C868   1.406       .  A
C867        H877   1.085       .  S
C868        C869   1.405       .  A
C869        H878   1.084       .  S
C870        C871   1.418       .  A
C870        H879   1.077       .  S
C871        C872   1.418       .  A
C872        H880   1.084       .  S
C881        C882   1.395       .  A
C881        C886   1.404       .  A
C881        H897   1.084       .  S
C882        C883   1.402       .  A
C882        H898   1.084       .  S
C883        C893   1.398       .  A
C883        C884   1.410       .  A
C884        C890   1.411       .  A
C884        C885   1.413       .  A
C885        C887   1.410       .  A
C885        C886   1.406       .  A
C886        C894   1.397       .  A
C887        C896   1.410       .  A
C887        C888   1.405       .  A
C888        C889   1.403       .  A
C888        H899   1.083       .  S
C889        C890   1.404       .  A
C889        H900   1.083       .  S
C890        C891   1.407       .  A
C891        C892   1.409       .  A
C891        H901   1.084       .  S
C892        C893   1.409       .  A
C893        H902   1.084       .  S
C894        C895   1.420       .  A
C894        H903   1.080       .  S
C895        C896   1.416       .  A
C896        H904   1.084       .  S
C905        C906   1.394       .  A
C905        C910   1.401       .  A
C905        H921   1.084       .  S
C906        C907   1.402       .  A
C906        H922   1.084       .  S
C907        C917   1.392       .  A
C907        C908   1.406       .  A
C908        C914   1.412       .  A
C908        C909   1.411       .  A
C909        C911   1.411       .  A
C909        C910   1.413       .  A
C910        C918   1.399       .  A
C911        C920   1.406       .  A
C911        C912   1.405       .  A
C912        C913   1.403       .  A
C912        H923   1.084       .  S
C913        C914   1.406       .  A
C913        H924   1.083       .  S
C914        C915   1.411       .  A
C915        C916   1.417       .  A
C915        H925   1.080       .  S
C916        C917   1.414       .  A
C917        H926   1.084       .  S
C918        C919   1.401       .  A
C918        H927   1.085       .  S
C919        C920   1.408       .  A
C920        H928   1.084       .  S
C929        C930   1.398       .  A
C929        C934   1.403       .  A
C929        H945   1.084       .  S
C930        C931   1.403       .  A
C930        H946   1.084       .  S
C931        C941   1.399       .  A
C931        C932   1.410       .  A
C932        C938   1.413       .  A
C932        C933   1.410       .  A
C933        C935   1.408       .  A
C933        C934   1.409       .  A
C934        C942   1.399       .  A
C935        C944   1.400       .  A
C935        C936   1.404       .  A
C936        C937   1.398       .  A
C936        H947   1.084       .  S
C937        C938   1.402       .  A
C937        H948   1.084       .  S
C938        C939   1.403       .  A
C939        C940   1.402       .  A
C939        H949   1.085       .  S
C940        C941   1.405       .  A
C941        H950   1.085       .  S
C942        C943   1.415       .  A
C942        H951   1.084       .  S
C943        C944   1.416       .  A
C944        H952   1.079       .  S
C953        C954   1.404       .  A
C953        C958   1.406       .  A
C953        H969   1.084       .  S
C954        C955   1.406       .  A
C954        H970   1.083       .  S
C955        C965   1.411       .  A
C955        C956   1.412       .  A
C956        C962   1.412       .  A
C956        C957   1.413       .  A
C957        C959   1.407       .  A
C957        C958   1.411       .  A
C958        C966   1.411       .  A
C959        C968   1.394       .  A
C959        C960   1.402       .  A
C960        C961   1.395       .  A
C960        H971   1.084       .  S
C961        C962   1.401       .  A
C961        H972   1.084       .  S
C962        C963   1.399       .  A
C963        C964   1.403       .  A
C963        H973   1.085       .  S
C964        C965   1.411       .  A
C965        H974   1.084       .  S
C966        C967   1.416       .  A
C966        H975   1.080       .  S
C967        C968   1.414       .  A
C968        H976   1.085       .  S
C977        C978   1.400       .  A
C977        C982   1.404       .  A
C977        H993   1.084       .  S
C978        C979   1.404       .  A
C978        H994   1.083       .  S
C979        C989   1.403       .  A
C979        C980   1.411       .  A
C980        C986   1.412       .  A
C980        C981   1.412       .  A
C981        C983   1.408       .  A
C981        C982   1.409       .  A
C982        C990   1.402       .  A
C983        C992   1.401       .  A
C983        C984   1.404       .  A
C984        C985   1.398       .  A
C984        H995   1.084       .  S
C985        C986   1.403       .  A
C985        H996   1.084       .  S
C986        C987   1.403       .  A
C987        C988   1.404       .  A
C987        H997   1.085       .  S
C988        C989   1.405       .  A
C989        H998   1.084       .  S
C990        C991   1.417       .  A
C990        H999   1.084       .  S
C991        C992   1.417       .  A
C992       H1000   1.078       .  S
C1001      C1002   1.397       .  A
C1001      C1006   1.402       .  A
C1001      H1017   1.084       .  S
C1002      C1003   1.402       .  A
C1002      H1018   1.083       .  S
C1003      C1013   1.403       .  A
C1003      C1004   1.413       .  A
C1004      C1010   1.410       .  A
C1004      C1005   1.413       .  A
C1005      C1007   1.411       .  A
C1005      C1006   1.407       .  A
C1006      C1014   1.396       .  A
C1007      C1016   1.410       .  A
C1007      C1008   1.405       .  A
C1008      C1009   1.403       .  A
C1008      H1019   1.084       .  S
C1009      C1010   1.406       .  A
C1009      H1020   1.084       .  S
C1010      C1011   1.407       .  A
C1011      C1012   1.410       .  A
C1011      H1021   1.084       .  S
C1012      C1013   1.404       .  A
C1013      H1022   1.084       .  S
C1014      C1015   1.413       .  A
C1014      H1023   1.084       .  S
C1015      C1016   1.417       .  A
C1016      H1024   1.081       .  S
