geometry optimzed in LAMMPS
_audit_creation_date              2020-11-30 
_audit_creation_method            'lammps2cif' 
_symmetry_space_group_name_H-M    'P1' 
_symmetry_Int_Tables_number       1 
_symmetry_cell_setting            triclinic 
loop_ 
_symmetry_equiv_pos_as_xyz 
  x,y,z 
_cell_length_a                    36.51114839 
_cell_length_b                    36.35511006837137 
_cell_length_c                    26.428983368966176 
_cell_angle_alpha                 91.26723745728928 
_cell_angle_beta                  90.96509278669151 
_cell_angle_gamma                 90.17078612229997 
loop_ 
_atom_site_label 
_atom_site_type_symbol 
_atom_site_fract_x 
_atom_site_fract_y 
_atom_site_fract_z 
_atom_site_charge 
N1          N  0.44505460  0.99897970  0.01527840    -0.36400
N2          N  0.00250120  0.05355366  0.00198806    -0.57000
N3          N  0.05707163  0.99590040  0.00780136    -0.36400
N4          N  0.99963726  0.44113666  0.01590740    -0.57000
C5          C  0.42479109  0.02867900  0.00305395     0.27200
C6          C  0.42316961  0.46904999  0.00912700     0.27200
C7          C  0.07805653  0.02440064  0.99341494     0.27200
C8          C  0.07648451  0.46484323  0.99928351     0.27200
C9          C  0.47389766  0.07631603  0.00970503     0.35800
C10         C  0.03293294  0.07466300  0.00634788     0.35800
C11         C  0.46981818  0.42057132  0.02544872     0.35800
C12         C  0.02891239  0.41898728  0.02190080     0.35800
C13         C  0.38942098  0.01761051  0.99010284    -0.21700
C14         C  0.38837058  0.47999657  0.99402488    -0.22300
C15         C  0.11137032  0.01140915  0.97624483    -0.21700
C16         C  0.11038201  0.47378608  0.97991971    -0.21700
C17         C  0.48616163  0.11205783  0.01840037    -0.22700
C18         C  0.02362320  0.11100486  0.01630790    -0.22700
C19         C  0.48017267  0.38511220  0.03747444    -0.22700
C20         C  0.01768127  0.38413897  0.03536225    -0.22700
C21         C  0.43675827  0.06570417  0.00609420    -0.18100
C22         C  0.43333217  0.43224395  0.01830988    -0.18100
C23         C  0.06527510  0.42882519  0.01097768    -0.18100
C24         C  0.06889165  0.06195928  0.99863634    -0.18100
H25         H  0.36663427  0.03486996  0.97922585     0.14800
H26         H  0.36458270  0.46272594  0.98673111     0.14800
H27         H  0.13417657  0.02741494  0.96293888     0.14800
H28         H  0.13231783  0.45517424  0.96992165     0.14800
H29         H  0.46982266  0.13638752  0.02532977     0.13100
H30         H  0.04188630  0.13436036  0.02125977     0.13100
H31         H  0.46250798  0.36212115  0.04571632     0.13100
H32         H  0.03465852  0.36026228  0.04167450     0.13100
H33         H  0.47097863  0.99957698  0.03182110     0.26400
H34         H  0.03297490  0.99791534  0.02780562     0.26400
N35         N  0.05361293  0.50247196  0.50470638    -0.36400
N36         N  0.49812265  0.44643921  0.51198737    -0.57000
N37         N  0.44197262  0.50305416  0.51496019    -0.36400
N38         N  0.49776480  0.05898443  0.50356630    -0.57000
C39         C  0.07349093  0.47206974  0.49419037     0.27200
C40         C  0.07331030  0.03164447  0.48978009     0.27200
C41         C  0.42110664  0.47265185  0.50673748     0.27200
C42         C  0.42095512  0.03246014  0.50385521     0.27200
C43         C  0.02805249  0.42541428  0.51956784     0.35800
C44         C  0.46892411  0.42552416  0.52323225     0.35800
C45         C  0.02779581  0.08061336  0.50779838     0.35800
C46         C  0.46884065  0.08097936  0.51285792     0.35800
C47         C  0.10624567  0.48203384  0.47235478    -0.21700
C48         C  0.10619306  0.01974413  0.46976685    -0.21700
C49         C  0.38620760  0.48291808  0.49108372    -0.21700
C50         C  0.38608117  0.02070263  0.48946742    -0.21700
C51         C  0.01786983  0.39095698  0.53590095    -0.22700
C52         C  0.48029252  0.39098367  0.53806018    -0.22700
C53         C  0.01793126  0.11659414  0.51922855    -0.22700
C54         C  0.48046543  0.11684070  0.52233940    -0.22700
C55         C  0.06400345  0.43592747  0.50736531    -0.18100
C56         C  0.06372183  0.06876469  0.49799773    -0.18100
C57         C  0.43196855  0.06966715  0.50859374    -0.18100
C58         C  0.43215177  0.43604699  0.51547877    -0.18100
H59         H  0.12823681  0.46406926  0.46051870     0.14800
H60         H  0.12812582  0.03651981  0.45556641     0.14800
H61         H  0.36310249  0.46507123  0.48216315     0.14800
H62         H  0.36293034  0.03758423  0.47891904     0.14800
H63         H  0.03558837  0.36796808  0.54418831     0.13100
H64         H  0.46323892  0.36803125  0.54842272     0.13100
H65         H  0.03579706  0.14027488  0.52398815     0.13100
H66         H  0.46367448  0.14074966  0.52995765     0.13100
H67         H  0.03043683  0.50366573  0.52694582     0.26400
H68         H  0.46774691  0.50391055  0.53219166     0.26400
Zn69       Zn  0.20718502  0.24711940  0.95300787     1.49700
Zn70       Zn  0.29438709  0.24849707  0.95464630     1.49400
Zn71       Zn  0.24995769  0.29080835  0.04142199     1.49100
Zn72       Zn  0.25206629  0.20354753  0.03831126     1.49500
O73         O  0.25090506  0.24741807  0.99681943    -1.83900
O74         O  0.22011911  0.25036529  0.87941351    -0.74500
O75         O  0.32433708  0.29378562  0.97009455    -0.74400
O76         O  0.20516876  0.32135006  0.02862367    -0.73900
O77         O  0.28095377  0.24857199  0.88048861    -0.74600
O78         O  0.17439479  0.28979846  0.96912230    -0.74200
O79         O  0.29416671  0.32253612  0.03147117    -0.74700
O80         O  0.25061635  0.21608952  0.11344060    -0.74100
O81         O  0.32705793  0.20513130  0.96726777    -0.74900
O82         O  0.24959341  0.27701797  0.11455304    -0.74300
O83         O  0.29794645  0.17440064  0.02592528    -0.74700
O84         O  0.20888324  0.17108653  0.02103874    -0.74700
O85         O  0.17779371  0.20105051  0.96218069    -0.74400
C86         C  0.25049761  0.24992898  0.85648903     0.77300
C87         C  0.32109702  0.32047568  0.00159778     0.77800
C88         C  0.17736952  0.31739052  0.99927962     0.76800
C89         C  0.25017301  0.24674868  0.13773394     0.77200
C90         C  0.32508838  0.17808009  0.99676999     0.78300
C91         C  0.18165213  0.17346287  0.99051857     0.77400
Zn92       Zn  0.20409601  0.25141401  0.45372370     1.49700
Zn93       Zn  0.24760486  0.20915698  0.54083164     1.49400
Zn94       Zn  0.29137694  0.25117213  0.45557504     1.49100
Zn95       Zn  0.24806615  0.29642335  0.54100535     1.49500
O96         O  0.24777267  0.25205278  0.49762354    -1.83900
O97         O  0.17309572  0.20713197  0.46664668    -0.74500
O98         O  0.29263324  0.17884614  0.53110593    -0.74400
O99         O  0.27794055  0.24968700  0.38103986    -0.73900
O100        O  0.20381504  0.17696822  0.52575310    -0.74600
O101        O  0.21700351  0.24871120  0.37936348    -0.74200
O102        O  0.32276743  0.20707739  0.47083550    -0.74700
O103        O  0.29301059  0.32665860  0.52961877    -0.74100
O104        O  0.24712451  0.22357845  0.61449545    -0.74900
O105        O  0.32269028  0.29601311  0.46970302    -0.74300
O106        O  0.24735060  0.28461404  0.61518858    -0.74700
O107        O  0.20439389  0.32802119  0.52660589    -0.74700
O108        O  0.17341961  0.29662149  0.46712780    -0.74400
C109        C  0.17656373  0.17974430  0.49540735     0.77300
C110        C  0.32008534  0.18129545  0.50244228     0.77800
C111        C  0.24753734  0.24837849  0.35673253     0.76800
C112        C  0.32010652  0.32341317  0.50019002     0.77200
C113        C  0.24711529  0.25433178  0.63837603     0.78300
C114        C  0.17688606  0.32462922  0.49662124     0.77400
C115        C  0.22744829  0.27662419  0.77641289    -0.08900
C116        C  0.25029163  0.25128670  0.80078450     0.07300
C117        C  0.27210758  0.22742198  0.77140377    -0.02700
C118        C  0.27047259  0.22892288  0.71866462    -0.07200
C119        C  0.24791173  0.25442732  0.69420497     0.06400
C120        C  0.22641470  0.27868979  0.72356704    -0.02200
Br121      Br  0.19369923  0.31368669  0.69375709    -0.01900
H122        H  0.21048854  0.29506023  0.79861979     0.10300
H123        H  0.28709739  0.21009146  0.69657815     0.08300
Br124      Br  0.30292815  0.19068414  0.80085888    -0.02300
C125        C  0.23443078  0.21764307  0.21933181    -0.08900
C126        C  0.25012329  0.24727347  0.19394984     0.07300
C127        C  0.26581415  0.27663969  0.22306085    -0.02700
C128        C  0.26437416  0.27645211  0.27591916    -0.07200
C129        C  0.24792801  0.24733617  0.30093858     0.06400
C130        C  0.23345519  0.21741610  0.27231699    -0.02200
Br131      Br  0.21494781  0.17439336  0.30389858    -0.01900
H132        H  0.22296342  0.19446455  0.19793950     0.10300
H133        H  0.27645517  0.29912332  0.29773165     0.08300
Br134      Br  0.29225939  0.31648452  0.19380595    -0.02300
C135        C  0.14791408  0.37905617  0.53845758    -0.08900
C136        C  0.14816629  0.35354018  0.49749527     0.07300
C137        C  0.12073812  0.35628516  0.45917640    -0.02700
C138        C  0.09314739  0.38264844  0.46391360    -0.07200
C139        C  0.09282966  0.40738741  0.50520283     0.06400
C140        C  0.12087672  0.40604489  0.54214574    -0.02200
Br141      Br  0.12341910  0.44071854  0.59796878    -0.01900
H142        H  0.16877761  0.37808565  0.56801910     0.10300
H143        H  0.07221446  0.38451269  0.43453541     0.08300
Br144      Br  0.12015055  0.32719290  0.39756447    -0.02300
C145        C  0.40087329  0.38496812  0.46816790    -0.08900
C146        C  0.40394073  0.40672235  0.51242329     0.07300
C147        C  0.37976398  0.40103277  0.55222460    -0.02700
C148        C  0.35277206  0.37386231  0.54725002    -0.07200
C149        C  0.34931892  0.35186172  0.50286058     0.06400
C150        C  0.37387143  0.35774943  0.46286880    -0.02200
Br151      Br  0.37139920  0.33146903  0.39898368    -0.01900
H152        H  0.41934157  0.38962482  0.43726420     0.10300
H153        H  0.33458004  0.36978753  0.57860740     0.08300
Br154      Br  0.38300070  0.42944183  0.61417137    -0.02300
C155        C  0.36724634  0.14278596  0.46073006    -0.08900
C156        C  0.34922288  0.15329923  0.50528191     0.07300
C157        C  0.35930749  0.13659433  0.55129894    -0.02700
C158        C  0.38609719  0.10920549  0.55154490    -0.07200
C159        C  0.40344180  0.09843846  0.50680991     0.06400
C160        C  0.39416140  0.11558744  0.46124230    -0.02200
Br161      Br  0.41732675  0.10232065  0.39888511    -0.01900
H162        H  0.35999903  0.15536896  0.42517302     0.10300
H163        H  0.39381927  0.09653913  0.58687165     0.08300
Br164      Br  0.33960450  0.15149259  0.61552665    -0.02300
C165        C  0.14102146  0.13229553  0.53945344    -0.08900
C166        C  0.14808468  0.15080926  0.49450040     0.07300
C167        C  0.12752686  0.14139006  0.45019233    -0.02700
C168        C  0.10024743  0.11446775  0.45189762    -0.07200
C169        C  0.09309655  0.09664115  0.49701526     0.06400
C170        C  0.11366498  0.10550125  0.54096643    -0.02200
Br171      Br  0.10456123  0.08213650  0.60394905    -0.01900
H172        H  0.15634637  0.13915317  0.57385126     0.10300
H173        H  0.08457829  0.10727104  0.41790459     0.08300
Br174      Br  0.13610939  0.16263898  0.38564965    -0.02300
C175        C  0.09620907  0.37801431  0.96450318    -0.08900
C176        C  0.09308584  0.39938584  0.00889048     0.07300
C177        C  0.11728095  0.39372903  0.04975829    -0.02700
C178        C  0.14430649  0.36680709  0.04582675    -0.07200
C179        C  0.14788354  0.34525536  0.00128333     0.06400
C180        C  0.12341159  0.35122559  0.96011969    -0.02200
Br181      Br  0.12670744  0.32604004  0.89564435    -0.01900
H182        H  0.07783525  0.38282640  0.93272292     0.10300
H183        H  0.16257354  0.36272403  0.07792090     0.08300
Br184      Br  0.11438537  0.42237025  0.11139535    -0.02300
C185        C  0.39591195  0.38776122  0.96723546    -0.08900
C186        C  0.40445806  0.40362083  0.01475001     0.07300
C187        C  0.38550155  0.39236579  0.05756280    -0.02700
C188        C  0.35821182  0.36548554  0.05233116    -0.07200
C189        C  0.34960989  0.34930416  0.00477448     0.06400
C190        C  0.36868683  0.36084469  0.96180217    -0.02200
Br191      Br  0.35760249  0.34284816  0.89435863    -0.01900
H192        H  0.41031720  0.39671320  0.93414827     0.10300
H193        H  0.34402433  0.35681397  0.08574297     0.08300
Br194      Br  0.39635863  0.41263610  0.12371689    -0.02300
C195        C  0.35855229  0.12881492  0.04161680    -0.08900
C196        C  0.35485532  0.15037435  0.99823233     0.07300
C197        C  0.37950188  0.14452281  0.95796237    -0.02700
C198        C  0.40578432  0.11672906  0.96115120    -0.07200
C199        C  0.40874928  0.09508132  0.00419302     0.06400
C200        C  0.38541167  0.10172757  0.04502842    -0.02200
Br201      Br  0.39008900  0.07520384  0.10677562    -0.01900
H202        H  0.34073777  0.13327992  0.07351530     0.10300
H203        H  0.42410393  0.11191145  0.92986844     0.08300
Br204      Br  0.37895188  0.17232875  0.89699756    -0.02300
C205        C  0.10124155  0.11095820  0.95237176    -0.08900
C206        C  0.09863055  0.08955105  0.99557748     0.07300
C207        C  0.12370933  0.09505343  0.03588832    -0.02700
C208        C  0.15084924  0.12191457  0.03274425    -0.07200
C209        C  0.15342238  0.14405649  0.98992370     0.06400
C210        C  0.12826970  0.13811204  0.94909855    -0.02200
Br211      Br  0.12939351  0.16487427  0.88722256    -0.01900
H212        H  0.08197927  0.10657225  0.92116562     0.10300
H213        H  0.16947059  0.12604959  0.06471693     0.08300
Br214      Br  0.12092972  0.06756609  0.09688170    -0.02300
N215        N  0.44505436  0.49897954  0.01527492    -0.36400
N216        N  0.00250093  0.55355431  0.00198547    -0.57000
N217        N  0.05707190  0.49590180  0.00780202    -0.36400
N218        N  0.99963705  0.94113614  0.01590886    -0.57000
C219        C  0.42479057  0.52867862  0.00305007     0.27200
C220        C  0.42316986  0.96905032  0.00912956     0.27200
C221        C  0.07805709  0.52440233  0.99341691     0.27200
C222        C  0.07648356  0.96484165  0.99928162     0.27200
C223        C  0.47389684  0.57631635  0.00970087     0.35800
C224        C  0.03293230  0.57466418  0.00634610     0.35800
C225        C  0.46981801  0.92057131  0.02545138     0.35800
C226        C  0.02891198  0.91898656  0.02190232     0.35800
C227        C  0.38942046  0.51760981  0.99009974    -0.21700
C228        C  0.38837092  0.97999721  0.99402717    -0.22300
C229        C  0.11137164  0.51141123  0.97624928    -0.21700
C230        C  0.11038041  0.97378402  0.97991529    -0.21700
C231        C  0.48616019  0.61205844  0.01839587    -0.22700
C232        C  0.02362182  0.61100601  0.01630484    -0.22700
C233        C  0.48017231  0.88511230  0.03747814    -0.22700
C234        C  0.01768077  0.88413864  0.03536528    -0.22700
C235        C  0.43675761  0.56570388  0.00608963    -0.18100
C236        C  0.43333216  0.93224414  0.01831193    -0.18100
C237        C  0.06527444  0.92882387  0.01097725    -0.18100
C238        C  0.06889144  0.56196090  0.99863698    -0.18100
H239        H  0.36663356  0.53486901  0.97922279     0.14800
H240        H  0.36458302  0.96272675  0.98673269     0.14800
H241        H  0.13417819  0.52741729  0.96294484     0.14800
H242        H  0.13231563  0.95517186  0.96991580     0.14800
H243        H  0.46982081  0.63638799  0.02532439     0.13100
H244        H  0.04188450  0.63436181  0.02125718     0.13100
H245        H  0.46250751  0.86212154  0.04572096     0.13100
H246        H  0.03465788  0.86026188  0.04167780     0.13100
H247        H  0.47097790  0.49957725  0.03181795     0.26400
H248        H  0.03297492  0.49791644  0.02780493     0.26400
N249        N  0.05361361  0.00247169  0.50471131    -0.36400
N250        N  0.49812274  0.94643934  0.51199261    -0.57000
N251        N  0.44197338  0.00305461  0.51496680    -0.36400
N252        N  0.49776324  0.55898430  0.50355979    -0.57000
C253        C  0.07349106  0.97206935  0.49419411     0.27200
C254        C  0.07330925  0.53164484  0.48977460     0.27200
C255        C  0.42110701  0.97265246  0.50674459     0.27200
C256        C  0.42095399  0.53245949  0.50384891     0.27200
C257        C  0.02805256  0.92541419  0.51957236     0.35800
C258        C  0.46892427  0.92552453  0.52323856     0.35800
C259        C  0.02779409  0.58061347  0.50779159     0.35800
C260        C  0.46883898  0.58097906  0.51285156     0.35800
C261        C  0.10624578  0.98203325  0.47235823    -0.21700
C262        C  0.10619233  0.51974467  0.46976219    -0.21700
C263        C  0.38620808  0.98291899  0.49109081    -0.21700
C264        C  0.38608022  0.52070171  0.48946084    -0.21700
C265        C  0.01787000  0.89095702  0.53590601    -0.22700
C266        C  0.48029272  0.89098404  0.53806647    -0.22700
C267        C  0.01792931  0.61659419  0.51922171    -0.22700
C268        C  0.48046351  0.61684048  0.52233289    -0.22700
C269        C  0.06400335  0.93592714  0.50736882    -0.18100
C270        C  0.06372021  0.56876506  0.49799113    -0.18100
C271        C  0.43196698  0.56966656  0.50858778    -0.18100
C272        C  0.43215190  0.93604746  0.51548576    -0.18100
H273        H  0.12823656  0.96406850  0.46052137     0.14800
H274        H  0.12812487  0.53652048  0.45556145     0.14800
H275        H  0.36310279  0.96507234  0.48217039     0.14800
H276        H  0.36292920  0.53758314  0.47891271     0.14800
H277        H  0.03558856  0.86796804  0.54419293     0.13100
H278        H  0.46323916  0.86803181  0.54842983     0.13100
H279        H  0.03579495  0.64027506  0.52398112     0.13100
H280        H  0.46367243  0.64074930  0.52995146     0.13100
H281        H  0.03043778  0.00366545  0.52695124     0.26400
H282        H  0.46774779  0.00391084  0.53219793     0.26400
Zn283      Zn  0.20718608  0.74711995  0.95300547     1.49700
Zn284      Zn  0.29438785  0.74849762  0.95464398     1.49400
Zn285      Zn  0.24995833  0.79080911  0.04141911     1.49100
Zn286      Zn  0.25206685  0.70354869  0.03830981     1.49500
O287        O  0.25090587  0.74741873  0.99681720    -1.83900
O288        O  0.22012027  0.75036537  0.87941125    -0.74500
O289        O  0.32433819  0.79378589  0.97009205    -0.74400
O290        O  0.20516940  0.82135053  0.02862075    -0.73900
O291        O  0.28095486  0.74857215  0.88048624    -0.74600
O292        O  0.17439561  0.78979863  0.96911963    -0.74200
O293        O  0.29416725  0.82253646  0.03146812    -0.74700
O294        O  0.25061704  0.71609144  0.11343917    -0.74100
O295        O  0.32705821  0.70513172  0.96726557    -0.74900
O296        O  0.24959402  0.77701983  0.11455047    -0.74300
O297        O  0.29794680  0.67440132  0.02592343    -0.74700
O298        O  0.20888321  0.67108815  0.02103787    -0.74700
O299        O  0.17779444  0.70105144  0.96217843    -0.74400
C300        C  0.25049872  0.74992884  0.85648664     0.77300
C301        C  0.32109785  0.82047588  0.00159529     0.77800
C302        C  0.17737006  0.81739064  0.99927699     0.76800
C303        C  0.25017356  0.74675083  0.13773199     0.77200
C304        C  0.32508859  0.67808054  0.99676780     0.78300
C305        C  0.18165231  0.67346427  0.99051726     0.77400
Zn306      Zn  0.20409549  0.75141509  0.45372160     1.49700
Zn307      Zn  0.24760302  0.70915641  0.54082836     1.49400
Zn308      Zn  0.29137644  0.75117285  0.45557376     1.49100
Zn309      Zn  0.24806571  0.79642281  0.54100454     1.49500
O310        O  0.24777194  0.75205291  0.49762163    -1.83900
O311        O  0.17309432  0.70713342  0.46664256    -0.74500
O312        O  0.29263053  0.67884469  0.53110147    -0.74400
O313        O  0.27794019  0.74968928  0.38103814    -0.73900
O314        O  0.20381259  0.67696874  0.52574890    -0.74600
O315        O  0.21700313  0.74871349  0.37936160    -0.74200
O316        O  0.32276595  0.70707717  0.47083331    -0.74700
O317        O  0.29301072  0.82665791  0.52962046    -0.74100
O318        O  0.24712326  0.72357666  0.61449270    -0.74900
O319        O  0.32269055  0.79601327  0.46970425    -0.74300
O320        O  0.24734937  0.78461230  0.61518685    -0.74700
O321        O  0.20439396  0.82802127  0.52660573    -0.74700
O322        O  0.17341956  0.79662239  0.46712704    -0.74400
C323        C  0.17656154  0.67974549  0.49540285     0.77300
C324        C  0.32008302  0.68129434  0.50243863     0.77800
C325        C  0.24753696  0.74838113  0.35673070     0.76800
C326        C  0.32010701  0.82341277  0.50019229     0.77200
C327        C  0.24711409  0.75432983  0.63837369     0.78300
C328        C  0.17688610  0.82462971  0.49662110     0.77400
C329        C  0.22744621  0.77662088  0.77641021    -0.08900
C330        C  0.25029251  0.75128607  0.80078200     0.07300
C331        C  0.27211062  0.72742332  0.77140124    -0.02700
C332        C  0.27047456  0.72892334  0.71866201    -0.07200
C333        C  0.24791080  0.75442523  0.69420245     0.06400
C334        C  0.22641176  0.77868581  0.72356438    -0.02200
Br335      Br  0.19369264  0.81367914  0.69375404    -0.01900
H336        H  0.21048482  0.79505542  0.79861696     0.10300
H337        H  0.28710093  0.71009347  0.69657537     0.08300
Br338      Br  0.30293582  0.69068923  0.80085617    -0.02300
C339        C  0.23443129  0.71764556  0.21932997    -0.08900
C340        C  0.25012335  0.74727617  0.19394795     0.07300
C341        C  0.26581289  0.77664313  0.22305899    -0.02700
C342        C  0.26437288  0.77645549  0.27591731    -0.07200
C343        C  0.24792751  0.74733911  0.30093673     0.06400
C344        C  0.23345511  0.71741887  0.27231510    -0.02200
Br345      Br  0.21494704  0.67439643  0.30389674    -0.01900
H346        H  0.22296455  0.69446669  0.19793774     0.10300
H347        H  0.27645311  0.79912709  0.29772985     0.08300
Br348      Br  0.29225593  0.81648954  0.19380436    -0.02300
C349        C  0.14791462  0.87905642  0.53845840    -0.08900
C350        C  0.14816629  0.85354050  0.49749601     0.07300
C351        C  0.12073724  0.85628506  0.45917825    -0.02700
C352        C  0.09314645  0.88264810  0.46391643    -0.07200
C353        C  0.09282934  0.90738703  0.50520567     0.06400
C354        C  0.12087701  0.90604475  0.54214764    -0.02200
Br355      Br  0.12341982  0.94071823  0.59797080    -0.01900
H356        H  0.16877867  0.87808608  0.56801924     0.10300
H357        H  0.07221295  0.88451224  0.43453898     0.08300
Br358      Br  0.12014819  0.82719231  0.39756672    -0.02300
C359        C  0.40087636  0.88496646  0.46817548    -0.08900
C360        C  0.40394091  0.90672265  0.51242938     0.07300
C361        C  0.37976195  0.90103421  0.55222846    -0.02700
C362        C  0.35277028  0.87386351  0.54725269    -0.07200
C363        C  0.34931978  0.85186117  0.50286448     0.06400
C364        C  0.37387511  0.85774722  0.46287543    -0.02200
Br365      Br  0.37140815  0.83146354  0.39899261    -0.01900
H366        H  0.41934665  0.88962194  0.43727369     0.10300
H367        H  0.33457634  0.86978998  0.57860828     0.08300
Br368      Br  0.38299559  0.92944482  0.61417408    -0.02300
C369        C  0.36724525  0.64278649  0.46072617    -0.08900
C370        C  0.34922023  0.65329768  0.50527769     0.07300
C371        C  0.35930325  0.63659053  0.55129380    -0.02700
C372        C  0.38609338  0.60920208  0.55153915    -0.07200
C373        C  0.40343986  0.59843753  0.50680454     0.06400
C374        C  0.39416056  0.61558823  0.46123782    -0.02200
Br375      Br  0.41732764  0.60232404  0.39888093    -0.01900
H376        H  0.35999903  0.65537098  0.42516976     0.10300
H377        H  0.39381423  0.59653399  0.58686516     0.08300
Br378      Br  0.33959717  0.65148470  0.61552135    -0.02300
C379        C  0.14101943  0.63229605  0.53944763    -0.08900
C380        C  0.14808196  0.65081091  0.49449528     0.07300
C381        C  0.12752330  0.64139290  0.45018743    -0.02700
C382        C  0.10024433  0.61447003  0.45189213    -0.07200
C383        C  0.09309460  0.59664189  0.49700896     0.06400
C384        C  0.11366332  0.60550138  0.54096004    -0.02200
Br385      Br  0.10456019  0.58213542  0.60394194    -0.01900
H386        H  0.15634472  0.63915302  0.57384538     0.10300
H387        H  0.08457461  0.60727414  0.41789930     0.08300
Br388      Br  0.13610377  0.66264430  0.38564577    -0.02300
C389        C  0.09620743  0.87801222  0.96450291    -0.08900
C390        C  0.09308502  0.89938438  0.00888982     0.07300
C391        C  0.11728116  0.89372847  0.04975674    -0.02700
C392        C  0.14430710  0.86680702  0.04582456    -0.07200
C393        C  0.14788355  0.84525487  0.00128136     0.06400
C394        C  0.12341033  0.85122392  0.96011876    -0.02200
Br395      Br  0.12670501  0.82603752  0.89564376    -0.01900
H396        H  0.07783278  0.88282362  0.93272334     0.10300
H397        H  0.16257499  0.86272473  0.07791804     0.08300
Br398      Br  0.11438653  0.92237037  0.11139340    -0.02300
C399        C  0.39591174  0.88776299  0.96723537    -0.08900
C400        C  0.40445815  0.90362111  0.01475075     0.07300
C401        C  0.38550236  0.89236439  0.05756325    -0.02700
C402        C  0.35821295  0.86548398  0.05233050    -0.07200
C403        C  0.34961071  0.84930414  0.00477302     0.06400
C404        C  0.36868696  0.86084622  0.96180102    -0.02200
Br405      Br  0.35760200  0.84285157  0.89435678    -0.01900
H406        H  0.41031651  0.89671625  0.93414846     0.10300
H407        H  0.34402590  0.85681109  0.08574201     0.08300
Br408      Br  0.39636009  0.91263244  0.12371840    -0.02300
C409        C  0.35855190  0.62881438  0.04161333    -0.08900
C410        C  0.35485523  0.65037448  0.99822947     0.07300
C411        C  0.37950186  0.64452333  0.95795946    -0.02700
C412        C  0.40578361  0.61672893  0.96114725    -0.07200
C413        C  0.40874837  0.59508068  0.00418854     0.06400
C414        C  0.38541111  0.60172686  0.04502430    -0.02200
Br415      Br  0.39008927  0.57520332  0.10677153    -0.01900
H416        H  0.34073754  0.63327920  0.07351205     0.10300
H417        H  0.42410325  0.61191162  0.92986443     0.08300
Br418      Br  0.37895356  0.67233112  0.89699636    -0.02300
C419        C  0.10124109  0.61095984  0.95237195    -0.08900
C420        C  0.09863001  0.58955315  0.99557813     0.07300
C421        C  0.12370865  0.59505613  0.03588902    -0.02700
C422        C  0.15084870  0.62191707  0.03274428    -0.07200
C423        C  0.15342214  0.64405828  0.98992308     0.06400
C424        C  0.12826934  0.63811357  0.94909810    -0.02200
Br425      Br  0.12939328  0.66487517  0.88722152    -0.01900
H426        H  0.08197885  0.60657348  0.92116586     0.10300
H427        H  0.16946999  0.62605248  0.06471695     0.08300
Br428      Br  0.12092874  0.56756983  0.09688325    -0.02300
N429        N  0.94505453  0.99897971  0.01527839    -0.36400
N430        N  0.50250125  0.05355366  0.00198805    -0.57000
N431        N  0.55707166  0.99590039  0.00780133    -0.36400
N432        N  0.49963723  0.44113666  0.01590740    -0.57000
C433        C  0.92479104  0.02867899  0.00305396     0.27200
C434        C  0.92316959  0.46904998  0.00912702     0.27200
C435        C  0.57805655  0.02440064  0.99341490     0.27200
C436        C  0.57648444  0.46484322  0.99928349     0.27200
C437        C  0.97389760  0.07631604  0.00970501     0.35800
C438        C  0.53293299  0.07466300  0.00634788     0.35800
C439        C  0.96981821  0.42057131  0.02544872     0.35800
C440        C  0.52891234  0.41898727  0.02190081     0.35800
C441        C  0.88942093  0.01761049  0.99010282    -0.21700
C442        C  0.88837055  0.47999657  0.99402490    -0.22300
C443        C  0.61137033  0.01140918  0.97624480    -0.21700
C444        C  0.61038192  0.47378607  0.97991970    -0.21700
C445        C  0.98616158  0.11205784  0.01840037    -0.22700
C446        C  0.52362325  0.11100485  0.01630790    -0.22700
C447        C  0.98017272  0.38511219  0.03747445    -0.22700
C448        C  0.51768121  0.38413895  0.03536225    -0.22700
C449        C  0.93675821  0.06570416  0.00609409    -0.18100
C450        C  0.93333217  0.43224393  0.01830988    -0.18100
C451        C  0.56527504  0.42882519  0.01097770    -0.18100
C452        C  0.56889169  0.06195927  0.99863637    -0.18100
H453        H  0.86663421  0.03486989  0.97922571     0.14800
H454        H  0.86458266  0.46272598  0.98673111     0.14800
H455        H  0.63417656  0.02741500  0.96293885     0.14800
H456        H  0.63231775  0.45517422  0.96992168     0.14800
H457        H  0.96982260  0.13638754  0.02532976     0.13100
H458        H  0.54188634  0.13436035  0.02125978     0.13100
H459        H  0.96250806  0.36212111  0.04571633     0.13100
H460        H  0.53465841  0.36026222  0.04167453     0.13100
H461        H  0.97097871  0.99957699  0.03182094     0.26400
H462        H  0.53297499  0.99791533  0.02780569     0.26400
N463        N  0.55361288  0.50247197  0.50470640    -0.36400
N464        N  0.99812270  0.44643921  0.51198737    -0.57000
N465        N  0.94197255  0.50305414  0.51496021    -0.36400
N466        N  0.99776475  0.05898443  0.50356631    -0.57000
C467        C  0.57349088  0.47206973  0.49419034     0.27200
C468        C  0.57331033  0.03164447  0.48977999     0.27200
C469        C  0.92110659  0.47265182  0.50673749     0.27200
C470        C  0.92095508  0.03246009  0.50385523     0.27200
C471        C  0.52805244  0.42541426  0.51956785     0.35800
C472        C  0.96892415  0.42552416  0.52323226     0.35800
C473        C  0.52779587  0.08061335  0.50779834     0.35800
C474        C  0.96884058  0.08097934  0.51285791     0.35800
C475        C  0.60624562  0.48203381  0.47235476    -0.21700
C476        C  0.60619304  0.01974407  0.46976668    -0.21700
C477        C  0.88620752  0.48291804  0.49108373    -0.21700
C478        C  0.88608115  0.02070255  0.48946738    -0.21700
C479        C  0.51786976  0.39095697  0.53590095    -0.22700
C480        C  0.98029259  0.39098366  0.53806019    -0.22700
C481        C  0.51793134  0.11659411  0.51922850    -0.22700
C482        C  0.98046535  0.11684068  0.52233939    -0.22700
C483        C  0.56400339  0.43592746  0.50736533    -0.18100
C484        C  0.56372188  0.06876469  0.49799763    -0.18100
C485        C  0.93196849  0.06966711  0.50859375    -0.18100
C486        C  0.93215180  0.43604697  0.51547878    -0.18100
H487        H  0.62823673  0.46406918  0.46051872     0.14800
H488        H  0.62812578  0.03651968  0.45556606     0.14800
H489        H  0.86310241  0.46507121  0.48216314     0.14800
H490        H  0.86293029  0.03758412  0.47891896     0.14800
H491        H  0.53558827  0.36796804  0.54418832     0.13100
H492        H  0.96323903  0.36803121  0.54842273     0.13100
H493        H  0.53579716  0.14027484  0.52398799     0.13100
H494        H  0.96367435  0.14074960  0.52995769     0.13100
H495        H  0.53043685  0.50366576  0.52694580     0.26400
H496        H  0.96774684  0.50391054  0.53219166     0.26400
Zn497      Zn  0.70718501  0.24711938  0.95300788     1.49700
Zn498      Zn  0.79438707  0.24849705  0.95464626     1.49400
Zn499      Zn  0.74995764  0.29080835  0.04142200     1.49100
Zn500      Zn  0.75206634  0.20354753  0.03831126     1.49500
O501        O  0.75090505  0.24741806  0.99681943    -1.83900
O502        O  0.72011912  0.25036529  0.87941354    -0.74500
O503        O  0.82433700  0.29378564  0.97009450    -0.74400
O504        O  0.70516868  0.32135002  0.02862374    -0.73900
O505        O  0.78095379  0.24857200  0.88048857    -0.74600
O506        O  0.67439479  0.28979845  0.96912226    -0.74200
O507        O  0.79416668  0.32253610  0.03147123    -0.74700
O508        O  0.75061634  0.21608952  0.11344060    -0.74100
O509        O  0.82705796  0.20513128  0.96726764    -0.74900
O510        O  0.74959337  0.27701797  0.11455304    -0.74300
O511        O  0.79794651  0.17440067  0.02592521    -0.74700
O512        O  0.70888327  0.17108657  0.02103872    -0.74700
O513        O  0.67779368  0.20105052  0.96218070    -0.74400
C514        C  0.75049761  0.24992900  0.85648903     0.77300
C515        C  0.82109697  0.32047568  0.00159778     0.77800
C516        C  0.67736946  0.31739048  0.99927964     0.76800
C517        C  0.75017298  0.24674868  0.13773394     0.77200
C518        C  0.82508842  0.17808010  0.99676989     0.78300
C519        C  0.68165215  0.17346288  0.99051856     0.77400
Zn520      Zn  0.70409604  0.25141402  0.45372369     1.49700
Zn521      Zn  0.74760484  0.20915698  0.54083167     1.49400
Zn522      Zn  0.79137688  0.25117214  0.45557505     1.49100
Zn523      Zn  0.74806609  0.29642336  0.54100535     1.49500
O524        O  0.74777263  0.25205279  0.49762357    -1.83900
O525        O  0.67309583  0.20713193  0.46664662    -0.74500
O526        O  0.79263325  0.17884614  0.53110598    -0.74400
O527        O  0.77794050  0.24968701  0.38103985    -0.73900
O528        O  0.70381504  0.17696821  0.52575320    -0.74600
O529        O  0.71700348  0.24871120  0.37936348    -0.74200
O530        O  0.82276735  0.20707737  0.47083545    -0.74700
O531        O  0.79301062  0.32665859  0.52961876    -0.74100
O532        O  0.74712465  0.22357846  0.61449547    -0.74900
O533        O  0.82269032  0.29601309  0.46970302    -0.74300
O534        O  0.74735052  0.28461405  0.61518856    -0.74700
O535        O  0.70439383  0.32802117  0.52660588    -0.74700
O536        O  0.67341955  0.29662148  0.46712780    -0.74400
C537        C  0.67656378  0.17974428  0.49540735     0.77300
C538        C  0.82008531  0.18129544  0.50244227     0.77800
C539        C  0.74753730  0.24837849  0.35673252     0.76800
C540        C  0.82010658  0.32341315  0.50019002     0.77200
C541        C  0.74711534  0.25433180  0.63837603     0.78300
C542        C  0.67688600  0.32462922  0.49662123     0.77400
C543        C  0.72744828  0.27662423  0.77641287    -0.08900
C544        C  0.75029161  0.25128672  0.80078451     0.07300
C545        C  0.77210749  0.22742193  0.77140379    -0.02700
C546        C  0.77047255  0.22892286  0.71866466    -0.07200
C547        C  0.74791175  0.25442736  0.69420498     0.06400
C548        C  0.72641467  0.27868982  0.72356702    -0.02200
Br549      Br  0.69369913  0.31368667  0.69375708    -0.01900
H550        H  0.71048855  0.29506031  0.79861975     0.10300
H551        H  0.78709731  0.21009141  0.69657821     0.08300
Br552      Br  0.80292797  0.19068394  0.80085886    -0.02300
C553        C  0.73443080  0.21764305  0.21933179    -0.08900
C554        C  0.75012327  0.24727348  0.19394983     0.07300
C555        C  0.76581409  0.27663973  0.22306084    -0.02700
C556        C  0.76437407  0.27645216  0.27591915    -0.07200
C557        C  0.74792794  0.24733619  0.30093857     0.06400
C558        C  0.73345516  0.21741611  0.27231697    -0.02200
Br559      Br  0.71494794  0.17439332  0.30389859    -0.01900
H560        H  0.72296354  0.19446447  0.19793949     0.10300
H561        H  0.77645508  0.29912335  0.29773167     0.08300
Br562      Br  0.79225951  0.31648448  0.19380597    -0.02300
C563        C  0.64791408  0.37905623  0.53845751    -0.08900
C564        C  0.64816626  0.35354021  0.49749523     0.07300
C565        C  0.62073805  0.35628516  0.45917640    -0.02700
C566        C  0.59314732  0.38264842  0.46391364    -0.07200
C567        C  0.59282960  0.40738739  0.50520286     0.06400
C568        C  0.62087667  0.40604490  0.54214574    -0.02200
Br569      Br  0.62341900  0.44071853  0.59796878    -0.01900
H570        H  0.66877764  0.37808575  0.56801900     0.10300
H571        H  0.57221438  0.38451266  0.43453546     0.08300
Br572      Br  0.62015044  0.32719289  0.39756448    -0.02300
C573        C  0.90087340  0.38496807  0.46816792    -0.08900
C574        C  0.90394080  0.40672231  0.51242331     0.07300
C575        C  0.87976403  0.40103275  0.55222460    -0.02700
C576        C  0.85277210  0.37386233  0.54724997    -0.07200
C577        C  0.84931899  0.35186172  0.50286057     0.06400
C578        C  0.87387153  0.35774940  0.46286881    -0.02200
Br579      Br  0.87139913  0.33146905  0.39898367    -0.01900
H580        H  0.91934168  0.38962480  0.43726422     0.10300
H581        H  0.83458001  0.36978764  0.57860729     0.08300
Br582      Br  0.88300061  0.42944184  0.61417136    -0.02300
C583        C  0.86724642  0.14278600  0.46073004    -0.08900
C584        C  0.84922290  0.15329925  0.50528188     0.07300
C585        C  0.85930752  0.13659435  0.55129891    -0.02700
C586        C  0.88609716  0.10920545  0.55154487    -0.07200
C587        C  0.90344176  0.09843842  0.50680989     0.06400
C588        C  0.89416147  0.11558747  0.46124230    -0.02200
Br589      Br  0.91732690  0.10232066  0.39888514    -0.01900
H590        H  0.85999915  0.15536904  0.42517301     0.10300
H591        H  0.89381920  0.09653906  0.58687162     0.08300
Br592      Br  0.83960464  0.15149262  0.61552667    -0.02300
C593        C  0.64102146  0.13229556  0.53945343    -0.08900
C594        C  0.64808473  0.15080925  0.49450038     0.07300
C595        C  0.62752691  0.14139005  0.45019231    -0.02700
C596        C  0.60024745  0.11446778  0.45189762    -0.07200
C597        C  0.59309660  0.09664114  0.49701522     0.06400
C598        C  0.61366503  0.10550124  0.54096640    -0.02200
Br599      Br  0.60456137  0.08213648  0.60394903    -0.01900
H600        H  0.65634633  0.13915326  0.57385127     0.10300
H601        H  0.58457827  0.10727111  0.41790461     0.08300
Br602      Br  0.63610931  0.16263900  0.38564964    -0.02300
C603        C  0.59620903  0.37801433  0.96450317    -0.08900
C604        C  0.59308578  0.39938583  0.00889050     0.07300
C605        C  0.61728087  0.39372901  0.04975833    -0.02700
C606        C  0.64430641  0.36680706  0.04582679    -0.07200
C607        C  0.64788345  0.34525531  0.00128337     0.06400
C608        C  0.62341151  0.35122557  0.96011972    -0.02200
Br609      Br  0.62670734  0.32604004  0.89564437    -0.01900
H610        H  0.57783523  0.38282648  0.93272290     0.10300
H611        H  0.66257347  0.36272401  0.07792095     0.08300
Br612      Br  0.61438526  0.42237025  0.11139538    -0.02300
C613        C  0.89591190  0.38776124  0.96723547    -0.08900
C614        C  0.90445804  0.40362080  0.01475002     0.07300
C615        C  0.88550150  0.39236579  0.05756280    -0.02700
C616        C  0.85821174  0.36548557  0.05233113    -0.07200
C617        C  0.84960983  0.34930417  0.00477446     0.06400
C618        C  0.86868677  0.36084472  0.96180217    -0.02200
Br619      Br  0.85760262  0.34284814  0.89435862    -0.01900
H620        H  0.91031714  0.39671323  0.93414828     0.10300
H621        H  0.84402423  0.35681402  0.08574294     0.08300
Br622      Br  0.89635853  0.41263610  0.12371689    -0.02300
C623        C  0.85855233  0.12881495  0.04161677    -0.08900
C624        C  0.85485536  0.15037437  0.99823227     0.07300
C625        C  0.87950191  0.14452282  0.95796231    -0.02700
C626        C  0.90578427  0.11672902  0.96115107    -0.07200
C627        C  0.90874922  0.09508127  0.00419287     0.06400
C628        C  0.88541167  0.10172755  0.04502834    -0.02200
Br629      Br  0.89008914  0.07520386  0.10677558    -0.01900
H630        H  0.84073787  0.13328003  0.07351533     0.10300
H631        H  0.92410386  0.11191142  0.92986827     0.08300
Br632      Br  0.87895202  0.17232878  0.89699753    -0.02300
C633        C  0.60124156  0.11095824  0.95237184    -0.08900
C634        C  0.59863062  0.08955104  0.99557751     0.07300
C635        C  0.62370945  0.09505340  0.03588830    -0.02700
C636        C  0.65084935  0.12191454  0.03274420    -0.07200
C637        C  0.65342244  0.14405648  0.98992368     0.06400
C638        C  0.62826972  0.13811207  0.94909858    -0.02200
Br639      Br  0.62939364  0.16487426  0.88722255    -0.01900
H640        H  0.58197922  0.10657230  0.92116577     0.10300
H641        H  0.66947073  0.12604957  0.06471685     0.08300
Br642      Br  0.62092988  0.06756609  0.09688169    -0.02300
N643        N  0.94505433  0.49897953  0.01527493    -0.36400
N644        N  0.50250092  0.55355431  0.00198547    -0.57000
N645        N  0.55707181  0.49590180  0.00780204    -0.36400
N646        N  0.49963710  0.94113613  0.01590886    -0.57000
C647        C  0.92479056  0.52867861  0.00305007     0.27200
C648        C  0.92316984  0.96905032  0.00912958     0.27200
C649        C  0.57805703  0.52440232  0.99341689     0.27200
C650        C  0.57648361  0.96484165  0.99928163     0.27200
C651        C  0.97389683  0.57631634  0.00970087     0.35800
C652        C  0.53293230  0.57466418  0.00634611     0.35800
C653        C  0.96981797  0.92057131  0.02545139     0.35800
C654        C  0.52891202  0.91898655  0.02190233     0.35800
C655        C  0.88942044  0.51760982  0.99009975    -0.21700
C656        C  0.88837090  0.97999720  0.99402717    -0.22300
C657        C  0.61137155  0.51141122  0.97624926    -0.21700
C658        C  0.61038045  0.97378406  0.97991531    -0.21700
C659        C  0.98616016  0.61205844  0.01839587    -0.22700
C660        C  0.52362185  0.61100599  0.01630485    -0.22700
C661        C  0.98017227  0.88511231  0.03747815    -0.22700
C662        C  0.51768081  0.88413862  0.03536528    -0.22700
C663        C  0.93675760  0.56570387  0.00608964    -0.18100
C664        C  0.93333212  0.93224413  0.01831192    -0.18100
C665        C  0.56527447  0.92882387  0.01097724    -0.18100
C666        C  0.56889142  0.56196089  0.99863702    -0.18100
H667        H  0.86663355  0.53486904  0.97922281     0.14800
H668        H  0.86458301  0.96272673  0.98673263     0.14800
H669        H  0.63417810  0.52741730  0.96294484     0.14800
H670        H  0.63231570  0.95517192  0.96991585     0.14800
H671        H  0.96982076  0.63638797  0.02532440     0.13100
H672        H  0.54188455  0.63436177  0.02125718     0.13100
H673        H  0.96250748  0.86212153  0.04572097     0.13100
H674        H  0.53465791  0.86026184  0.04167781     0.13100
H675        H  0.97097792  0.49957722  0.03181786     0.26400
H676        H  0.53297499  0.49791644  0.02780511     0.26400
N677        N  0.55361361  0.00247172  0.50471131    -0.36400
N678        N  0.99812280  0.94643931  0.51199269    -0.57000
N679        N  0.94197338  0.00305459  0.51496685    -0.36400
N680        N  0.99776320  0.55898430  0.50355990    -0.57000
C681        C  0.57349104  0.97206935  0.49419408     0.27200
C682        C  0.57330926  0.53164483  0.48977461     0.27200
C683        C  0.92110706  0.97265241  0.50674461     0.27200
C684        C  0.92095392  0.53245945  0.50384896     0.27200
C685        C  0.52805249  0.92541422  0.51957234     0.35800
C686        C  0.96892435  0.92552450  0.52323869     0.35800
C687        C  0.52779413  0.58061346  0.50779149     0.35800
C688        C  0.96883893  0.58097902  0.51285174     0.35800
C689        C  0.60624573  0.98203320  0.47235815    -0.21700
C690        C  0.60619232  0.51974465  0.46976219    -0.21700
C691        C  0.88620813  0.98291891  0.49109077    -0.21700
C692        C  0.88608014  0.52070167  0.48946085    -0.21700
C693        C  0.51786990  0.89095705  0.53590599    -0.22700
C694        C  0.98029282  0.89098400  0.53806655    -0.22700
C695        C  0.51792937  0.61659418  0.51922152    -0.22700
C696        C  0.98046344  0.61684046  0.52233304    -0.22700
C697        C  0.56400330  0.93592716  0.50736884    -0.18100
C698        C  0.56372025  0.56876506  0.49799111    -0.18100
C699        C  0.93196692  0.56966651  0.50858792    -0.18100
C700        C  0.93215197  0.93604741  0.51548581    -0.18100
H701        H  0.62823648  0.96406841  0.46052128     0.14800
H702        H  0.62812488  0.53652045  0.45556146     0.14800
H703        H  0.86310287  0.96507222  0.48217033     0.14800
H704        H  0.86292911  0.53758309  0.47891271     0.14800
H705        H  0.53558842  0.86796805  0.54419297     0.13100
H706        H  0.96323929  0.86803172  0.54842985     0.13100
H707        H  0.53579504  0.64027502  0.52398088     0.13100
H708        H  0.96367232  0.64074927  0.52995148     0.13100
H709        H  0.53043785  0.00366552  0.52695120     0.26400
H710        H  0.96774779  0.00391085  0.53219797     0.26400
Zn711      Zn  0.70718610  0.74711995  0.95300548     1.49700
Zn712      Zn  0.79438793  0.74849763  0.95464397     1.49400
Zn713      Zn  0.74995841  0.79080912  0.04141911     1.49100
Zn714      Zn  0.75206693  0.70354869  0.03830980     1.49500
O715        O  0.75090596  0.74741874  0.99681717    -1.83900
O716        O  0.72012030  0.75036537  0.87941129    -0.74500
O717        O  0.82433828  0.79378589  0.97009206    -0.74400
O718        O  0.70516937  0.82135052  0.02862081    -0.73900
O719        O  0.78095490  0.74857216  0.88048621    -0.74600
O720        O  0.67439563  0.78979865  0.96911958    -0.74200
O721        O  0.79416729  0.82253644  0.03146811    -0.74700
O722        O  0.75061718  0.71609144  0.11343918    -0.74100
O723        O  0.82705817  0.70513169  0.96726557    -0.74900
O724        O  0.74959416  0.77701983  0.11455046    -0.74300
O725        O  0.79794679  0.67440128  0.02592343    -0.74700
O726        O  0.70888325  0.67108814  0.02103785    -0.74700
O727        O  0.67779448  0.70105143  0.96217842    -0.74400
C728        C  0.75049873  0.74992885  0.85648665     0.77300
C729        C  0.82109789  0.82047589  0.00159529     0.77800
C730        C  0.67737004  0.81739063  0.99927702     0.76800
C731        C  0.75017368  0.74675083  0.13773199     0.77200
C732        C  0.82508856  0.67808052  0.99676778     0.78300
C733        C  0.68165233  0.67346427  0.99051725     0.77400
Zn734      Zn  0.70409542  0.75141508  0.45372159     1.49700
Zn735      Zn  0.74760300  0.70915641  0.54082836     1.49400
Zn736      Zn  0.79137640  0.75117284  0.45557377     1.49100
Zn737      Zn  0.74806565  0.79642282  0.54100454     1.49500
O738        O  0.74777185  0.75205290  0.49762164    -1.83900
O739        O  0.67309422  0.70713341  0.46664257    -0.74500
O740        O  0.79263061  0.67884472  0.53110143    -0.74400
O741        O  0.77794025  0.74968928  0.38103814    -0.73900
O742        O  0.70381255  0.67696877  0.52574892    -0.74600
O743        O  0.71700319  0.74871349  0.37936160    -0.74200
O744        O  0.82276604  0.70707720  0.47083330    -0.74700
O745        O  0.79301074  0.82665789  0.52962055    -0.74100
O746        O  0.74712335  0.72357667  0.61449271    -0.74900
O747        O  0.82269050  0.79601329  0.46970423    -0.74300
O748        O  0.74734923  0.78461230  0.61518683    -0.74700
O749        O  0.70439390  0.82802128  0.52660580    -0.74700
O750        O  0.67341957  0.79662242  0.46712699    -0.74400
C751        C  0.67656151  0.67974548  0.49540284     0.77300
C752        C  0.82008312  0.68129438  0.50243863     0.77800
C753        C  0.74753703  0.74838113  0.35673070     0.76800
C754        C  0.82010701  0.82341276  0.50019232     0.77200
C755        C  0.74711408  0.75432984  0.63837369     0.78300
C756        C  0.67688607  0.82462972  0.49662111     0.77400
C757        C  0.72744615  0.77662087  0.77641020    -0.08900
C758        C  0.75029246  0.75128607  0.80078200     0.07300
C759        C  0.77211054  0.72742330  0.77140123    -0.02700
C760        C  0.77047450  0.72892333  0.71866202    -0.07200
C761        C  0.74791078  0.75442525  0.69420245     0.06400
C762        C  0.72641170  0.77868580  0.72356437    -0.02200
Br763      Br  0.69369254  0.81367913  0.69375405    -0.01900
H764        H  0.71048476  0.79505542  0.79861694     0.10300
H765        H  0.78710085  0.71009343  0.69657539     0.08300
Br766      Br  0.80293571  0.69068922  0.80085618    -0.02300
C767        C  0.73443140  0.71764554  0.21932997    -0.08900
C768        C  0.75012343  0.74727618  0.19394795     0.07300
C769        C  0.76581295  0.77664316  0.22305900    -0.02700
C770        C  0.76437287  0.77645555  0.27591732    -0.07200
C771        C  0.74792757  0.74733911  0.30093673     0.06400
C772        C  0.73345522  0.71741883  0.27231510    -0.02200
Br773      Br  0.71494696  0.67439645  0.30389673    -0.01900
H774        H  0.72296469  0.69446666  0.19793774     0.10300
H775        H  0.77645299  0.79912720  0.29772986     0.08300
Br776      Br  0.79225608  0.81648952  0.19380438    -0.02300
C777        C  0.64791455  0.87905638  0.53845842    -0.08900
C778        C  0.64816624  0.85354049  0.49749601     0.07300
C779        C  0.62073722  0.85628508  0.45917822    -0.02700
C780        C  0.59314641  0.88264811  0.46391644    -0.07200
C781        C  0.59282929  0.90738703  0.50520569     0.06400
C782        C  0.62087697  0.90604474  0.54214764    -0.02200
Br783      Br  0.62341994  0.94071824  0.59797078    -0.01900
H784        H  0.66877859  0.87808603  0.56801927     0.10300
H785        H  0.57221289  0.88451219  0.43453901     0.08300
Br786      Br  0.62014809  0.82719230  0.39756672    -0.02300
C787        C  0.90087637  0.88496645  0.46817545    -0.08900
C788        C  0.90394099  0.90672260  0.51242940     0.07300
C789        C  0.87976202  0.90103416  0.55222849    -0.02700
C790        C  0.85277035  0.87386348  0.54725272    -0.07200
C791        C  0.84931980  0.85186117  0.50286449     0.06400
C792        C  0.87387507  0.85774726  0.46287539    -0.02200
Br793      Br  0.87140804  0.83146355  0.39899260    -0.01900
H794        H  0.91934662  0.88962190  0.43727361     0.10300
H795        H  0.83457644  0.86978994  0.57860834     0.08300
Br796      Br  0.88299551  0.92944484  0.61417407    -0.02300
C797        C  0.86724537  0.64278652  0.46072621    -0.08900
C798        C  0.84922032  0.65329771  0.50527769     0.07300
C799        C  0.85930325  0.63659050  0.55129379    -0.02700
C800        C  0.88609331  0.60920201  0.55153918    -0.07200
C801        C  0.90343982  0.59843746  0.50680461     0.06400
C802        C  0.89416061  0.61558820  0.46123788    -0.02200
Br803      Br  0.91732757  0.60232401  0.39888093    -0.01900
H804        H  0.85999923  0.65537104  0.42516979     0.10300
H805        H  0.89381414  0.59653398  0.58686524     0.08300
Br806      Br  0.83959730  0.65148473  0.61552136    -0.02300
C807        C  0.64101952  0.63229598  0.53944756    -0.08900
C808        C  0.64808205  0.65081083  0.49449522     0.07300
C809        C  0.62752340  0.64139281  0.45018737    -0.02700
C810        C  0.60024443  0.61446997  0.45189210    -0.07200
C811        C  0.59309465  0.59664188  0.49700894     0.06400
C812        C  0.61366340  0.60550134  0.54096000    -0.02200
Br813      Br  0.60456033  0.58213542  0.60394193    -0.01900
H814        H  0.65634477  0.63915300  0.57384532     0.10300
H815        H  0.58457473  0.60727408  0.41789926     0.08300
Br816      Br  0.63610369  0.66264433  0.38564575    -0.02300
C817        C  0.59620744  0.87801226  0.96450286    -0.08900
C818        C  0.59308502  0.89938440  0.00888979     0.07300
C819        C  0.61728109  0.89372844  0.04975676    -0.02700
C820        C  0.64430703  0.86680698  0.04582458    -0.07200
C821        C  0.64788348  0.84525483  0.00128139     0.06400
C822        C  0.62341028  0.85122390  0.96011876    -0.02200
Br823      Br  0.62670491  0.82603751  0.89564376    -0.01900
H824        H  0.57783283  0.88282375  0.93272325     0.10300
H825        H  0.66257490  0.86272470  0.07791807     0.08300
Br826      Br  0.61438642  0.92237036  0.11139341    -0.02300
C827        C  0.89591172  0.88776300  0.96723536    -0.08900
C828        C  0.90445814  0.90362109  0.01475075     0.07300
C829        C  0.88550237  0.89236435  0.05756326    -0.02700
C830        C  0.85821291  0.86548401  0.05233049    -0.07200
C831        C  0.84961068  0.84930419  0.00477300     0.06400
C832        C  0.86868693  0.86084627  0.96180100    -0.02200
Br833      Br  0.85760213  0.84285155  0.89435676    -0.01900
H834        H  0.91031647  0.89671626  0.93414843     0.10300
H835        H  0.84402584  0.85681116  0.08574199     0.08300
Br836      Br  0.89635999  0.91263245  0.12371840    -0.02300
C837        C  0.85855188  0.62881437  0.04161329    -0.08900
C838        C  0.85485521  0.65037447  0.99822945     0.07300
C839        C  0.87950185  0.64452333  0.95795946    -0.02700
C840        C  0.90578365  0.61672898  0.96114728    -0.07200
C841        C  0.90874838  0.59508070  0.00418855     0.06400
C842        C  0.88541107  0.60172684  0.04502427    -0.02200
Br843      Br  0.89008916  0.57520331  0.10677152    -0.01900
H844        H  0.84073750  0.63327918  0.07351199     0.10300
H845        H  0.92410333  0.61191170  0.92986449     0.08300
Br846      Br  0.87895347  0.67233111  0.89699635    -0.02300
C847        C  0.60124103  0.61095984  0.95237199    -0.08900
C848        C  0.59863000  0.58955314  0.99557815     0.07300
C849        C  0.62370868  0.59505611  0.03588900    -0.02700
C850        C  0.65084868  0.62191709  0.03274428    -0.07200
C851        C  0.65342210  0.64405832  0.98992310     0.06400
C852        C  0.62826927  0.63811360  0.94909813    -0.02200
Br853      Br  0.62939318  0.66487517  0.88722153    -0.01900
H854        H  0.58197877  0.60657345  0.92116592     0.10300
H855        H  0.66946998  0.62605250  0.06471693     0.08300
Br856      Br  0.62092889  0.56756982  0.09688323    -0.02300
loop_ 
_geom_bond_atom_site_label_1 
_geom_bond_atom_site_label_2 
_geom_bond_distance 
_geom_bond_site_symmetry_2 
_ccdc_geom_bond_type 
N1           H33   1.036       .  S
N1            C5   1.353   1_565  A
N1          C220   1.353       .  A
N2           C10   1.350       .  A
N2          C437   1.350   1_455  A
N3           H34   1.036       .  S
N3            C7   1.352   1_564  A
N3          C222   1.352   1_554  A
N4           C12   1.349   1_655  A
N4          C439   1.349       .  A
C5           C13   1.387   1_554  A
C5           C21   1.414       .  A
C6          N215   1.353       .  A
C6           C22   1.415       .  A
C6           C14   1.387   1_554  A
C7           C15   1.386       .  A
C7           C24   1.411       .  A
C8          N217   1.352   1_556  A
C8           C23   1.413   1_556  A
C8           C16   1.388       .  A
C9          N430   1.350       .  A
C9           C21   1.410       .  A
C9           C17   1.386       .  A
C10          C24   1.410   1_554  A
C10          C18   1.386       .  A
C11         N432   1.349       .  A
C11          C19   1.387       .  A
C11          C22   1.410       .  A
C12          C20   1.386       .  A
C12          C23   1.410       .  A
C13         C228   1.374   1_545  A
C13          H25   1.082       .  S
C14         C227   1.374       .  A
C14          H26   1.082       .  S
C15         C230   1.374   1_545  A
C15          H27   1.082       .  S
C16         C229   1.374       .  A
C16          H28   1.082       .  S
C17         C446   1.370       .  A
C17          H29   1.082       .  S
C18         C445   1.370   1_455  A
C18          H30   1.082       .  S
C19         C448   1.372       .  A
C19          H31   1.082       .  S
C20         C447   1.372   1_455  A
C20          H32   1.082       .  S
C21         C199   1.482       .  S
C22         C186   1.479       .  S
C23         C176   1.478       .  S
C24         C206   1.480       .  S
N35          H67   1.039       .  S
N35          C39   1.350       .  A
N35         C254   1.350       .  A
N36          C44   1.349       .  A
N36         C471   1.350       .  A
N37          H68   1.039       .  S
N37          C41   1.352       .  A
N37         C256   1.352       .  A
N38          C46   1.349       .  A
N38         C473   1.349       .  A
C39          C47   1.387       .  A
C39          C55   1.410       .  A
C40         N249   1.350       .  A
C40          C56   1.408       .  A
C40          C48   1.387       .  A
C41          C49   1.388       .  A
C41          C58   1.414       .  A
C42         N251   1.352       .  A
C42          C57   1.412       .  A
C42          C50   1.386       .  A
C43         N464   1.350   1_455  A
C43          C55   1.411       .  A
C43          C51   1.386       .  A
C44          C58   1.410       .  A
C44          C52   1.386       .  A
C45         N466   1.349   1_455  A
C45          C53   1.386       .  A
C45          C56   1.408       .  A
C46          C54   1.386       .  A
C46          C57   1.408       .  A
C47         C262   1.374       .  A
C47          H59   1.082       .  S
C48         C261   1.374   1_545  A
C48          H60   1.082       .  S
C49         C264   1.375       .  A
C49          H61   1.082       .  S
C50         C263   1.375   1_545  A
C50          H62   1.082       .  S
C51         C480   1.374   1_455  A
C51          H63   1.082       .  S
C52         C479   1.374       .  A
C52          H64   1.082       .  S
C53         C482   1.372   1_455  A
C53          H65   1.082       .  S
C54         C481   1.372       .  A
C54          H66   1.082       .  S
C55         C139   1.481       .  S
C56         C169   1.474       .  S
C57         C159   1.479       .  S
C58         C146   1.480       .  S
Zn69         O73   1.956       .  S
Zn69         O74   2.015       .  S
Zn69         O78   2.005       .  S
Zn69         O85   2.008       .  S
Zn70         O73   1.956       .  S
Zn70         O75   2.004       .  S
Zn70         O77   2.012       .  S
Zn70         O81   2.010       .  S
Zn71         O73   1.949   1_554  S
Zn71         O76   2.008       .  S
Zn71         O79   2.005       .  S
Zn71         O82   2.008       .  S
Zn72         O73   1.956   1_554  S
Zn72         O80   2.029       .  S
Zn72         O83   2.012       .  S
Zn72         O84   2.007       .  S
O74          C86   1.273       .  A
O75          C87   1.272   1_556  A
O76          C88   1.273   1_554  A
O77          C86   1.272       .  A
O78          C88   1.271       .  A
O79          C87   1.273       .  A
O80          C89   1.274       .  A
O81          C90   1.271       .  A
O82          C89   1.271       .  A
O83          C90   1.274   1_554  A
O84          C91   1.274   1_554  A
O85          C91   1.272       .  A
C86         C116   1.474       .  S
C87         C189   1.475       .  S
C88         C179   1.481   1_556  S
C89         C126   1.485       .  S
C90         C196   1.485       .  S
C91         C209   1.482       .  S
Zn92         O96   1.956       .  S
Zn92         O97   2.004       .  S
Zn92        O101   2.029       .  S
Zn92        O108   2.020       .  S
Zn93         O96   1.953       .  S
Zn93         O98   1.999       .  S
Zn93        O100   2.008       .  S
Zn93        O104   2.005       .  S
Zn94         O96   1.957       .  S
Zn94         O99   2.022       .  S
Zn94        O102   2.017       .  S
Zn94        O105   2.013       .  S
Zn95         O96   1.958       .  S
Zn95        O103   2.003       .  S
Zn95        O106   2.017       .  S
Zn95        O107   2.004       .  S
O97         C109   1.271       .  A
O98         C110   1.271       .  A
O99         C111   1.273       .  A
O100        C109   1.273       .  A
O101        C111   1.274       .  A
O102        C110   1.274       .  A
O103        C112   1.273       .  A
O104        C113   1.272       .  A
O105        C112   1.272       .  A
O106        C113   1.272       .  A
O107        C114   1.273       .  A
O108        C114   1.273       .  A
C109        C166   1.476       .  S
C110        C156   1.477       .  S
C111        C129   1.475       .  S
C112        C149   1.483       .  S
C113        C119   1.475       .  S
C114        C136   1.487       .  S
C115        C116   1.404       .  A
C115        C120   1.400       .  A
C115        H122   1.084       .  S
C116        C117   1.409       .  A
C117        C118   1.396       .  A
C117       Br124   1.919       .  S
C118        C119   1.403       .  A
C118        H123   1.084       .  S
C119        C120   1.411       .  A
C120       Br121   1.920       .  S
C125        C126   1.407       .  A
C125        C130   1.402       .  A
C125        H132   1.083       .  S
C126        C127   1.416       .  A
C127        C128   1.399       .  A
C127       Br134   1.922       .  S
C128        C129   1.400       .  A
C128        H133   1.084       .  S
C129        C130   1.408       .  A
C130       Br131   1.916       .  S
C135        C136   1.410       .  A
C135        C140   1.397       .  A
C135        H142   1.083       .  S
C136        C137   1.418       .  A
C137        C138   1.398       .  A
C137       Br144   1.922       .  S
C138        C139   1.399       .  A
C138        H143   1.084       .  S
C139        C140   1.405       .  A
C140       Br141   1.920       .  S
C145        C146   1.400       .  A
C145        C150   1.398       .  A
C145        H152   1.084       .  S
C146        C147   1.403       .  A
C147        C148   1.396       .  A
C147       Br154   1.918       .  S
C148        C149   1.409       .  A
C148        H153   1.083       .  S
C149        C150   1.417       .  A
C150       Br151   1.922       .  S
C155        C156   1.405       .  A
C155        C160   1.396       .  A
C155        H162   1.083       .  S
C156        C157   1.415       .  A
C157        C158   1.398       .  A
C157       Br164   1.922       .  S
C158        C159   1.399       .  A
C158        H163   1.084       .  S
C159        C160   1.405       .  A
C160       Br161   1.918       .  S
C165        C166   1.406       .  A
C165        C170   1.395       .  A
C165        H172   1.083       .  S
C166        C167   1.415       .  A
C167        C168   1.396       .  A
C167       Br174   1.918       .  S
C168        C169   1.398       .  A
C168        H173   1.084       .  S
C169        C170   1.403       .  A
C170       Br171   1.919       .  S
C175        C176   1.399   1_556  A
C175        C180   1.397       .  A
C175        H182   1.084       .  S
C176        C177   1.403       .  A
C177        C178   1.395       .  A
C177       Br184   1.918       .  S
C178        C179   1.408       .  A
C178        H183   1.083       .  S
C179        C180   1.417   1_554  A
C180       Br181   1.922       .  S
C185        C186   1.400   1_556  A
C185        C190   1.396       .  A
C185        H192   1.084       .  S
C186        C187   1.404       .  A
C187        C188   1.397       .  A
C187       Br194   1.917       .  S
C188        C189   1.406       .  A
C188        H193   1.084       .  S
C189        C190   1.413   1_554  A
C190       Br191   1.921       .  S
C195        C196   1.408   1_554  A
C195        C200   1.395       .  A
C195        H202   1.083       .  S
C196        C197   1.418       .  A
C197        C198   1.398       .  A
C197       Br204   1.921       .  S
C198        C199   1.400   1_556  A
C198        H203   1.084       .  S
C199        C200   1.404       .  A
C200       Br201   1.919       .  S
C205        C206   1.400       .  A
C205        C210   1.399       .  A
C205        H212   1.084       .  S
C206        C207   1.404   1_556  A
C207        C208   1.394       .  A
C207       Br214   1.919       .  S
C208        C209   1.407   1_554  A
C208        H213   1.083       .  S
C209        C210   1.418       .  A
C210       Br211   1.922       .  S
N215        H247   1.036       .  S
N215        C219   1.353       .  A
N216        C651   1.350   1_455  A
N216        C224   1.350       .  A
N217        H248   1.036       .  S
N217        C221   1.352   1_554  A
N218        C653   1.349       .  A
N218        C226   1.349   1_655  A
C219        C227   1.387   1_554  A
C219        C235   1.414       .  A
C220        C236   1.415       .  A
C220        C228   1.387   1_554  A
C221        C229   1.386       .  A
C221        C238   1.411       .  A
C222        C237   1.413   1_556  A
C222        C230   1.388       .  A
C223        N644   1.350       .  A
C223        C235   1.410       .  A
C223        C231   1.386       .  A
C224        C238   1.410   1_554  A
C224        C232   1.386       .  A
C225        N646   1.349       .  A
C225        C233   1.387       .  A
C225        C236   1.410       .  A
C226        C234   1.386       .  A
C226        C237   1.410       .  A
C227        H239   1.082       .  S
C228        H240   1.082       .  S
C229        H241   1.082       .  S
C230        H242   1.082       .  S
C231        C660   1.370       .  A
C231        H243   1.082       .  S
C232        C659   1.370   1_455  A
C232        H244   1.082       .  S
C233        C662   1.372       .  A
C233        H245   1.082       .  S
C234        C661   1.372   1_455  A
C234        H246   1.082       .  S
C235        C413   1.482       .  S
C236        C400   1.479       .  S
C237        C390   1.478       .  S
C238        C420   1.480       .  S
N249        H281   1.039       .  S
N249        C253   1.350   1_545  A
N250        C685   1.350       .  A
N250        C258   1.349       .  A
N251        H282   1.039       .  S
N251        C255   1.352   1_545  A
N252        C687   1.349       .  A
N252        C260   1.349       .  A
C253        C261   1.387       .  A
C253        C269   1.410       .  A
C254        C270   1.408       .  A
C254        C262   1.387       .  A
C255        C263   1.388       .  A
C255        C272   1.414       .  A
C256        C271   1.412       .  A
C256        C264   1.386       .  A
C257        N678   1.350   1_455  A
C257        C269   1.411       .  A
C257        C265   1.386       .  A
C258        C272   1.410       .  A
C258        C266   1.386       .  A
C259        N680   1.349   1_455  A
C259        C267   1.386       .  A
C259        C270   1.408       .  A
C260        C268   1.386       .  A
C260        C271   1.408       .  A
C261        H273   1.082       .  S
C262        H274   1.082       .  S
C263        H275   1.082       .  S
C264        H276   1.082       .  S
C265        C694   1.374   1_455  A
C265        H277   1.082       .  S
C266        C693   1.374       .  A
C266        H278   1.082       .  S
C267        C696   1.372   1_455  A
C267        H279   1.082       .  S
C268        C695   1.372       .  A
C268        H280   1.082       .  S
C269        C353   1.481       .  S
C270        C383   1.474       .  S
C271        C373   1.479       .  S
C272        C360   1.480       .  S
Zn283       O287   1.956       .  S
Zn283       O288   2.015       .  S
Zn283       O292   2.005       .  S
Zn283       O299   2.008       .  S
Zn284       O287   1.956       .  S
Zn284       O289   2.004       .  S
Zn284       O291   2.012       .  S
Zn284       O295   2.010       .  S
Zn285       O287   1.949   1_554  S
Zn285       O290   2.008       .  S
Zn285       O293   2.005       .  S
Zn285       O296   2.008       .  S
Zn286       O287   1.956   1_554  S
Zn286       O294   2.029       .  S
Zn286       O297   2.012       .  S
Zn286       O298   2.007       .  S
O288        C300   1.273       .  A
O289        C301   1.272   1_556  A
O290        C302   1.273   1_554  A
O291        C300   1.272       .  A
O292        C302   1.271       .  A
O293        C301   1.273       .  A
O294        C303   1.274       .  A
O295        C304   1.271       .  A
O296        C303   1.271       .  A
O297        C304   1.274   1_554  A
O298        C305   1.274   1_554  A
O299        C305   1.272       .  A
C300        C330   1.474       .  S
C301        C403   1.475       .  S
C302        C393   1.481   1_556  S
C303        C340   1.485       .  S
C304        C410   1.485       .  S
C305        C423   1.482       .  S
Zn306       O310   1.956       .  S
Zn306       O311   2.004       .  S
Zn306       O315   2.029       .  S
Zn306       O322   2.020       .  S
Zn307       O310   1.953       .  S
Zn307       O312   1.999       .  S
Zn307       O314   2.008       .  S
Zn307       O318   2.005       .  S
Zn308       O310   1.957       .  S
Zn308       O313   2.022       .  S
Zn308       O316   2.017       .  S
Zn308       O319   2.013       .  S
Zn309       O310   1.958       .  S
Zn309       O317   2.003       .  S
Zn309       O320   2.017       .  S
Zn309       O321   2.004       .  S
O311        C323   1.271       .  A
O312        C324   1.271       .  A
O313        C325   1.273       .  A
O314        C323   1.273       .  A
O315        C325   1.274       .  A
O316        C324   1.274       .  A
O317        C326   1.273       .  A
O318        C327   1.272       .  A
O319        C326   1.272       .  A
O320        C327   1.272       .  A
O321        C328   1.273       .  A
O322        C328   1.273       .  A
C323        C380   1.476       .  S
C324        C370   1.477       .  S
C325        C343   1.475       .  S
C326        C363   1.483       .  S
C327        C333   1.475       .  S
C328        C350   1.487       .  S
C329        C330   1.404       .  A
C329        C334   1.400       .  A
C329        H336   1.084       .  S
C330        C331   1.409       .  A
C331        C332   1.396       .  A
C331       Br338   1.919       .  S
C332        C333   1.403       .  A
C332        H337   1.084       .  S
C333        C334   1.411       .  A
C334       Br335   1.920       .  S
C339        C340   1.407       .  A
C339        C344   1.402       .  A
C339        H346   1.083       .  S
C340        C341   1.416       .  A
C341        C342   1.399       .  A
C341       Br348   1.922       .  S
C342        C343   1.400       .  A
C342        H347   1.084       .  S
C343        C344   1.408       .  A
C344       Br345   1.916       .  S
C349        C350   1.410       .  A
C349        C354   1.397       .  A
C349        H356   1.083       .  S
C350        C351   1.418       .  A
C351        C352   1.398       .  A
C351       Br358   1.922       .  S
C352        C353   1.399       .  A
C352        H357   1.084       .  S
C353        C354   1.405       .  A
C354       Br355   1.920       .  S
C359        C360   1.400       .  A
C359        C364   1.398       .  A
C359        H366   1.084       .  S
C360        C361   1.403       .  A
C361        C362   1.396       .  A
C361       Br368   1.918       .  S
C362        C363   1.409       .  A
C362        H367   1.083       .  S
C363        C364   1.417       .  A
C364       Br365   1.922       .  S
C369        C370   1.405       .  A
C369        C374   1.396       .  A
C369        H376   1.083       .  S
C370        C371   1.415       .  A
C371        C372   1.398       .  A
C371       Br378   1.922       .  S
C372        C373   1.399       .  A
C372        H377   1.084       .  S
C373        C374   1.405       .  A
C374       Br375   1.918       .  S
C379        C380   1.406       .  A
C379        C384   1.395       .  A
C379        H386   1.083       .  S
C380        C381   1.415       .  A
C381        C382   1.396       .  A
C381       Br388   1.918       .  S
C382        C383   1.398       .  A
C382        H387   1.084       .  S
C383        C384   1.403       .  A
C384       Br385   1.919       .  S
C389        C390   1.399   1_556  A
C389        C394   1.397       .  A
C389        H396   1.084       .  S
C390        C391   1.403       .  A
C391        C392   1.395       .  A
C391       Br398   1.918       .  S
C392        C393   1.408       .  A
C392        H397   1.083       .  S
C393        C394   1.417   1_554  A
C394       Br395   1.922       .  S
C399        C400   1.400   1_556  A
C399        C404   1.396       .  A
C399        H406   1.084       .  S
C400        C401   1.404       .  A
C401        C402   1.397       .  A
C401       Br408   1.917       .  S
C402        C403   1.406       .  A
C402        H407   1.084       .  S
C403        C404   1.413   1_554  A
C404       Br405   1.921       .  S
C409        C410   1.408   1_554  A
C409        C414   1.395       .  A
C409        H416   1.083       .  S
C410        C411   1.418       .  A
C411        C412   1.398       .  A
C411       Br418   1.921       .  S
C412        C413   1.400   1_556  A
C412        H417   1.084       .  S
C413        C414   1.404       .  A
C414       Br415   1.919       .  S
C419        C420   1.400       .  A
C419        C424   1.399       .  A
C419        H426   1.084       .  S
C420        C421   1.404   1_556  A
C421        C422   1.394       .  A
C421       Br428   1.919       .  S
C422        C423   1.407   1_554  A
C422        H427   1.083       .  S
C423        C424   1.418       .  A
C424       Br425   1.922       .  S
N429        H461   1.036       .  S
N429        C648   1.353       .  A
N429        C433   1.353   1_565  A
N430        C438   1.350       .  A
N431        H462   1.036       .  S
N431        C650   1.352   1_554  A
N431        C435   1.352   1_564  A
N432        C440   1.349       .  A
C433        C441   1.387   1_554  A
C433        C449   1.414       .  A
C434        N643   1.353       .  A
C434        C450   1.415       .  A
C434        C442   1.387   1_554  A
C435        C443   1.386       .  A
C435        C452   1.411       .  A
C436        N645   1.352   1_556  A
C436        C451   1.413   1_556  A
C436        C444   1.388       .  A
C437        C449   1.410       .  A
C437        C445   1.386       .  A
C438        C452   1.410   1_554  A
C438        C446   1.386       .  A
C439        C447   1.387       .  A
C439        C450   1.410       .  A
C440        C448   1.386       .  A
C440        C451   1.410       .  A
C441        C656   1.374   1_545  A
C441        H453   1.082       .  S
C442        C655   1.374       .  A
C442        H454   1.082       .  S
C443        C658   1.374   1_545  A
C443        H455   1.082       .  S
C444        C657   1.374       .  A
C444        H456   1.082       .  S
C445        H457   1.082       .  S
C446        H458   1.082       .  S
C447        H459   1.082       .  S
C448        H460   1.082       .  S
C449        C627   1.482       .  S
C450        C614   1.479       .  S
C451        C604   1.478       .  S
C452        C634   1.480       .  S
N463        H495   1.039       .  S
N463        C682   1.350       .  A
N463        C467   1.350       .  A
N464        C472   1.349       .  A
N465        H496   1.039       .  S
N465        C684   1.352       .  A
N465        C469   1.352       .  A
N466        C474   1.349       .  A
C467        C475   1.387       .  A
C467        C483   1.410       .  A
C468        N677   1.350       .  A
C468        C484   1.408       .  A
C468        C476   1.387       .  A
C469        C477   1.388       .  A
C469        C486   1.414       .  A
C470        N679   1.352       .  A
C470        C485   1.412       .  A
C470        C478   1.386       .  A
C471        C483   1.411       .  A
C471        C479   1.386       .  A
C472        C486   1.410       .  A
C472        C480   1.386       .  A
C473        C481   1.386       .  A
C473        C484   1.408       .  A
C474        C482   1.386       .  A
C474        C485   1.408       .  A
C475        C690   1.374       .  A
C475        H487   1.082       .  S
C476        C689   1.374   1_545  A
C476        H488   1.082       .  S
C477        C692   1.375       .  A
C477        H489   1.082       .  S
C478        C691   1.375   1_545  A
C478        H490   1.082       .  S
C479        H491   1.082       .  S
C480        H492   1.082       .  S
C481        H493   1.082       .  S
C482        H494   1.082       .  S
C483        C567   1.481       .  S
C484        C597   1.474       .  S
C485        C587   1.479       .  S
C486        C574   1.480       .  S
Zn497       O501   1.956       .  S
Zn497       O502   2.015       .  S
Zn497       O506   2.005       .  S
Zn497       O513   2.008       .  S
Zn498       O501   1.956       .  S
Zn498       O503   2.004       .  S
Zn498       O505   2.012       .  S
Zn498       O509   2.010       .  S
Zn499       O501   1.949   1_554  S
Zn499       O504   2.008       .  S
Zn499       O507   2.005       .  S
Zn499       O510   2.008       .  S
Zn500       O501   1.956   1_554  S
Zn500       O508   2.029       .  S
Zn500       O511   2.012       .  S
Zn500       O512   2.007       .  S
O502        C514   1.273       .  A
O503        C515   1.272   1_556  A
O504        C516   1.273   1_554  A
O505        C514   1.272       .  A
O506        C516   1.271       .  A
O507        C515   1.273       .  A
O508        C517   1.274       .  A
O509        C518   1.271       .  A
O510        C517   1.271       .  A
O511        C518   1.274   1_554  A
O512        C519   1.274   1_554  A
O513        C519   1.272       .  A
C514        C544   1.474       .  S
C515        C617   1.475       .  S
C516        C607   1.481   1_556  S
C517        C554   1.485       .  S
C518        C624   1.485       .  S
C519        C637   1.482       .  S
Zn520       O524   1.956       .  S
Zn520       O525   2.004       .  S
Zn520       O529   2.029       .  S
Zn520       O536   2.020       .  S
Zn521       O524   1.953       .  S
Zn521       O526   1.999       .  S
Zn521       O528   2.008       .  S
Zn521       O532   2.005       .  S
Zn522       O524   1.957       .  S
Zn522       O527   2.022       .  S
Zn522       O530   2.017       .  S
Zn522       O533   2.013       .  S
Zn523       O524   1.958       .  S
Zn523       O531   2.003       .  S
Zn523       O534   2.017       .  S
Zn523       O535   2.004       .  S
O525        C537   1.271       .  A
O526        C538   1.271       .  A
O527        C539   1.273       .  A
O528        C537   1.273       .  A
O529        C539   1.274       .  A
O530        C538   1.274       .  A
O531        C540   1.273       .  A
O532        C541   1.272       .  A
O533        C540   1.272       .  A
O534        C541   1.272       .  A
O535        C542   1.273       .  A
O536        C542   1.273       .  A
C537        C594   1.476       .  S
C538        C584   1.477       .  S
C539        C557   1.475       .  S
C540        C577   1.483       .  S
C541        C547   1.475       .  S
C542        C564   1.487       .  S
C543        C544   1.404       .  A
C543        C548   1.400       .  A
C543        H550   1.084       .  S
C544        C545   1.409       .  A
C545        C546   1.396       .  A
C545       Br552   1.919       .  S
C546        C547   1.403       .  A
C546        H551   1.084       .  S
C547        C548   1.411       .  A
C548       Br549   1.920       .  S
C553        C554   1.407       .  A
C553        C558   1.402       .  A
C553        H560   1.083       .  S
C554        C555   1.416       .  A
C555        C556   1.399       .  A
C555       Br562   1.922       .  S
C556        C557   1.400       .  A
C556        H561   1.084       .  S
C557        C558   1.408       .  A
C558       Br559   1.916       .  S
C563        C564   1.410       .  A
C563        C568   1.397       .  A
C563        H570   1.083       .  S
C564        C565   1.418       .  A
C565        C566   1.398       .  A
C565       Br572   1.922       .  S
C566        C567   1.399       .  A
C566        H571   1.084       .  S
C567        C568   1.405       .  A
C568       Br569   1.920       .  S
C573        C574   1.400       .  A
C573        C578   1.398       .  A
C573        H580   1.084       .  S
C574        C575   1.403       .  A
C575        C576   1.396       .  A
C575       Br582   1.918       .  S
C576        C577   1.409       .  A
C576        H581   1.083       .  S
C577        C578   1.417       .  A
C578       Br579   1.922       .  S
C583        C584   1.405       .  A
C583        C588   1.396       .  A
C583        H590   1.083       .  S
C584        C585   1.415       .  A
C585        C586   1.398       .  A
C585       Br592   1.922       .  S
C586        C587   1.399       .  A
C586        H591   1.084       .  S
C587        C588   1.405       .  A
C588       Br589   1.918       .  S
C593        C594   1.406       .  A
C593        C598   1.395       .  A
C593        H600   1.083       .  S
C594        C595   1.415       .  A
C595        C596   1.396       .  A
C595       Br602   1.918       .  S
C596        C597   1.398       .  A
C596        H601   1.084       .  S
C597        C598   1.403       .  A
C598       Br599   1.919       .  S
C603        C604   1.399   1_556  A
C603        C608   1.397       .  A
C603        H610   1.084       .  S
C604        C605   1.403       .  A
C605        C606   1.395       .  A
C605       Br612   1.918       .  S
C606        C607   1.408       .  A
C606        H611   1.083       .  S
C607        C608   1.417   1_554  A
C608       Br609   1.922       .  S
C613        C614   1.400   1_556  A
C613        C618   1.396       .  A
C613        H620   1.084       .  S
C614        C615   1.404       .  A
C615        C616   1.397       .  A
C615       Br622   1.917       .  S
C616        C617   1.406       .  A
C616        H621   1.084       .  S
C617        C618   1.413   1_554  A
C618       Br619   1.921       .  S
C623        C624   1.408   1_554  A
C623        C628   1.395       .  A
C623        H630   1.083       .  S
C624        C625   1.418       .  A
C625        C626   1.398       .  A
C625       Br632   1.921       .  S
C626        C627   1.400   1_556  A
C626        H631   1.084       .  S
C627        C628   1.404       .  A
C628       Br629   1.919       .  S
C633        C634   1.400       .  A
C633        C638   1.399       .  A
C633        H640   1.084       .  S
C634        C635   1.404   1_556  A
C635        C636   1.394       .  A
C635       Br642   1.919       .  S
C636        C637   1.407   1_554  A
C636        H641   1.083       .  S
C637        C638   1.418       .  A
C638       Br639   1.922       .  S
N643        H675   1.036       .  S
N643        C647   1.353       .  A
N644        C652   1.350       .  A
N645        H676   1.036       .  S
N645        C649   1.352   1_554  A
N646        C654   1.349       .  A
C647        C655   1.387   1_554  A
C647        C663   1.414       .  A
C648        C664   1.415       .  A
C648        C656   1.387   1_554  A
C649        C657   1.386       .  A
C649        C666   1.411       .  A
C650        C665   1.413   1_556  A
C650        C658   1.388       .  A
C651        C663   1.410       .  A
C651        C659   1.386       .  A
C652        C666   1.410   1_554  A
C652        C660   1.386       .  A
C653        C661   1.387       .  A
C653        C664   1.410       .  A
C654        C662   1.386       .  A
C654        C665   1.410       .  A
C655        H667   1.082       .  S
C656        H668   1.082       .  S
C657        H669   1.082       .  S
C658        H670   1.082       .  S
C659        H671   1.082       .  S
C660        H672   1.082       .  S
C661        H673   1.082       .  S
C662        H674   1.082       .  S
C663        C841   1.482       .  S
C664        C828   1.479       .  S
C665        C818   1.478       .  S
C666        C848   1.480       .  S
N677        H709   1.039       .  S
N677        C681   1.350   1_545  A
N678        C686   1.349       .  A
N679        H710   1.039       .  S
N679        C683   1.352   1_545  A
N680        C688   1.349       .  A
C681        C689   1.387       .  A
C681        C697   1.410       .  A
C682        C698   1.408       .  A
C682        C690   1.387       .  A
C683        C691   1.388       .  A
C683        C700   1.414       .  A
C684        C699   1.412       .  A
C684        C692   1.386       .  A
C685        C697   1.411       .  A
C685        C693   1.386       .  A
C686        C700   1.410       .  A
C686        C694   1.386       .  A
C687        C695   1.386       .  A
C687        C698   1.408       .  A
C688        C696   1.386       .  A
C688        C699   1.408       .  A
C689        H701   1.082       .  S
C690        H702   1.082       .  S
C691        H703   1.082       .  S
C692        H704   1.082       .  S
C693        H705   1.082       .  S
C694        H706   1.082       .  S
C695        H707   1.082       .  S
C696        H708   1.082       .  S
C697        C781   1.481       .  S
C698        C811   1.474       .  S
C699        C801   1.479       .  S
C700        C788   1.480       .  S
Zn711       O715   1.956       .  S
Zn711       O716   2.015       .  S
Zn711       O720   2.005       .  S
Zn711       O727   2.008       .  S
Zn712       O715   1.956       .  S
Zn712       O717   2.004       .  S
Zn712       O719   2.012       .  S
Zn712       O723   2.010       .  S
Zn713       O715   1.949   1_554  S
Zn713       O718   2.008       .  S
Zn713       O721   2.005       .  S
Zn713       O724   2.008       .  S
Zn714       O715   1.956   1_554  S
Zn714       O722   2.029       .  S
Zn714       O725   2.012       .  S
Zn714       O726   2.007       .  S
O716        C728   1.273       .  A
O717        C729   1.272   1_556  A
O718        C730   1.273   1_554  A
O719        C728   1.272       .  A
O720        C730   1.271       .  A
O721        C729   1.273       .  A
O722        C731   1.274       .  A
O723        C732   1.271       .  A
O724        C731   1.271       .  A
O725        C732   1.274   1_554  A
O726        C733   1.274   1_554  A
O727        C733   1.272       .  A
C728        C758   1.474       .  S
C729        C831   1.475       .  S
C730        C821   1.481   1_556  S
C731        C768   1.485       .  S
C732        C838   1.485       .  S
C733        C851   1.482       .  S
Zn734       O738   1.956       .  S
Zn734       O739   2.004       .  S
Zn734       O743   2.029       .  S
Zn734       O750   2.020       .  S
Zn735       O738   1.953       .  S
Zn735       O740   1.999       .  S
Zn735       O742   2.008       .  S
Zn735       O746   2.005       .  S
Zn736       O738   1.957       .  S
Zn736       O741   2.022       .  S
Zn736       O744   2.017       .  S
Zn736       O747   2.013       .  S
Zn737       O738   1.958       .  S
Zn737       O745   2.003       .  S
Zn737       O748   2.017       .  S
Zn737       O749   2.004       .  S
O739        C751   1.271       .  A
O740        C752   1.271       .  A
O741        C753   1.273       .  A
O742        C751   1.273       .  A
O743        C753   1.274       .  A
O744        C752   1.274       .  A
O745        C754   1.273       .  A
O746        C755   1.272       .  A
O747        C754   1.272       .  A
O748        C755   1.272       .  A
O749        C756   1.273       .  A
O750        C756   1.273       .  A
C751        C808   1.476       .  S
C752        C798   1.477       .  S
C753        C771   1.475       .  S
C754        C791   1.483       .  S
C755        C761   1.475       .  S
C756        C778   1.487       .  S
C757        C758   1.404       .  A
C757        C762   1.400       .  A
C757        H764   1.084       .  S
C758        C759   1.409       .  A
C759        C760   1.396       .  A
C759       Br766   1.919       .  S
C760        C761   1.403       .  A
C760        H765   1.084       .  S
C761        C762   1.411       .  A
C762       Br763   1.920       .  S
C767        C768   1.407       .  A
C767        C772   1.402       .  A
C767        H774   1.083       .  S
C768        C769   1.416       .  A
C769        C770   1.399       .  A
C769       Br776   1.922       .  S
C770        C771   1.400       .  A
C770        H775   1.084       .  S
C771        C772   1.408       .  A
C772       Br773   1.916       .  S
C777        C778   1.410       .  A
C777        C782   1.397       .  A
C777        H784   1.083       .  S
C778        C779   1.418       .  A
C779        C780   1.398       .  A
C779       Br786   1.922       .  S
C780        C781   1.399       .  A
C780        H785   1.084       .  S
C781        C782   1.405       .  A
C782       Br783   1.920       .  S
C787        C788   1.400       .  A
C787        C792   1.398       .  A
C787        H794   1.084       .  S
C788        C789   1.403       .  A
C789        C790   1.396       .  A
C789       Br796   1.918       .  S
C790        C791   1.409       .  A
C790        H795   1.083       .  S
C791        C792   1.417       .  A
C792       Br793   1.922       .  S
C797        C798   1.405       .  A
C797        C802   1.396       .  A
C797        H804   1.083       .  S
C798        C799   1.415       .  A
C799        C800   1.398       .  A
C799       Br806   1.922       .  S
C800        C801   1.399       .  A
C800        H805   1.084       .  S
C801        C802   1.405       .  A
C802       Br803   1.918       .  S
C807        C808   1.406       .  A
C807        C812   1.395       .  A
C807        H814   1.083       .  S
C808        C809   1.415       .  A
C809        C810   1.396       .  A
C809       Br816   1.918       .  S
C810        C811   1.398       .  A
C810        H815   1.084       .  S
C811        C812   1.403       .  A
C812       Br813   1.919       .  S
C817        C818   1.399   1_556  A
C817        C822   1.397       .  A
C817        H824   1.084       .  S
C818        C819   1.403       .  A
C819        C820   1.395       .  A
C819       Br826   1.918       .  S
C820        C821   1.408       .  A
C820        H825   1.083       .  S
C821        C822   1.417   1_554  A
C822       Br823   1.922       .  S
C827        C828   1.400   1_556  A
C827        C832   1.396       .  A
C827        H834   1.084       .  S
C828        C829   1.404       .  A
C829        C830   1.397       .  A
C829       Br836   1.917       .  S
C830        C831   1.406       .  A
C830        H835   1.084       .  S
C831        C832   1.413   1_554  A
C832       Br833   1.921       .  S
C837        C838   1.408   1_554  A
C837        C842   1.395       .  A
C837        H844   1.083       .  S
C838        C839   1.418       .  A
C839        C840   1.398       .  A
C839       Br846   1.921       .  S
C840        C841   1.400   1_556  A
C840        H845   1.084       .  S
C841        C842   1.404       .  A
C842       Br843   1.919       .  S
C847        C848   1.400       .  A
C847        C852   1.399       .  A
C847        H854   1.084       .  S
C848        C849   1.404   1_556  A
C849        C850   1.394       .  A
C849       Br856   1.919       .  S
C850        C851   1.407   1_554  A
C850        H855   1.083       .  S
C851        C852   1.418       .  A
C852       Br853   1.922       .  S
