geometry optimzed in LAMMPS
_audit_creation_date              2020-11-30 
_audit_creation_method            'lammps2cif' 
_symmetry_space_group_name_H-M    'P1' 
_symmetry_Int_Tables_number       1 
_symmetry_cell_setting            triclinic 
loop_ 
_symmetry_equiv_pos_as_xyz 
  x,y,z 
_cell_length_a                    41.20274041 
_cell_length_b                    27.69385946846 
_cell_length_c                    30.196065663531428 
_cell_angle_alpha                 89.53780634297777 
_cell_angle_beta                  89.39829978524962 
_cell_angle_gamma                 89.79837197338301 
loop_ 
_atom_site_label 
_atom_site_type_symbol 
_atom_site_fract_x 
_atom_site_fract_y 
_atom_site_fract_z 
_atom_site_charge 
O1          O  0.61127742  0.26302096  0.37811834    -0.76300
C2          C  0.53935350  0.37656831  0.34293369     0.84700
O3          O  0.63669929  0.30823237  0.22794864    -0.77400
O4          O  0.61171613  0.47376595  0.28300464    -0.78900
O5          O  0.66255233  0.41101128  0.41786265    -0.78700
O6          O  0.65794825  0.28793979  0.40686283    -0.77400
Zn7        Zn  0.59883446  0.31030105  0.32939530     1.55700
O8          O  0.62451613  0.46030734  0.39041168    -0.78700
Cd9        Cd  0.66458245  0.35419918  0.37259252     1.59700
Cd10       Cd  0.64913836  0.36718707  0.26582182     1.59600
O11         O  0.71110990  0.35854854  0.34226417    -0.78700
O12         O  0.62939652  0.36365272  0.32661542    -1.89200
Cd13       Cd  0.60578402  0.42617233  0.33614003     1.59900
O14         O  0.69844992  0.36921959  0.27108791    -0.78700
O15         O  0.55608303  0.41514266  0.34416636    -0.77400
C16         C  0.61670514  0.27433671  0.23615391     0.85200
C17         C  0.63490118  0.25715248  0.40464972     0.84800
O18         O  0.55246284  0.33507490  0.33811682    -0.76300
C19         C  0.64644240  0.45049995  0.41862728     0.85700
O20         O  0.60068062  0.27183285  0.27241578    -0.76400
C21         C  0.71925966  0.36614010  0.30176819     0.85800
C22         C  0.62403828  0.46926435  0.24440426     0.86100
O23         O  0.63755935  0.43028953  0.23178084    -0.78800
C24         C  0.55213245  0.12351018  0.11096120     0.88600
C25         C  0.56154451  0.16859924  0.13668942    -0.51600
C26         C  0.59332860  0.16908693  0.14881468     0.11600
C27         C  0.61294233  0.12441998  0.13366188     0.22500
C28         C  0.57544466  0.12160723  0.07161640    -0.52300
C29         C  0.60739715  0.12193057  0.08311026     0.11700
C30         C  0.56173157  0.08089974  0.14071800    -0.51800
C31         C  0.59350268  0.08122977  0.15279893     0.12200
H32         H  0.54438940  0.19681830  0.14579221     0.16800
H33         H  0.63886950  0.12462389  0.14340034     0.02500
H34         H  0.56743639  0.11873640  0.03755485     0.17100
H35         H  0.54477835  0.05321489  0.15176119     0.16900
C36         C  0.66394802  0.06559916  0.48889463     0.88600
C37         C  0.69843941  0.07467257  0.50436998    -0.51600
C38         C  0.69150837  0.11539878  0.03615729     0.11600
C39         C  0.66128804  0.14836354  0.03856284     0.22500
C40         C  0.63021515  0.07637325  0.02003894    -0.52300
C41         C  0.63288788  0.11365708  0.04917590     0.11700
C42         C  0.65484542  0.11168955  0.46291516    -0.51800
C43         C  0.65827226  0.15362000  0.48631980     0.12200
H44         H  0.71889233  0.05175019  0.49531918     0.16800
H45         H  0.66344715  0.17892293  0.06194278     0.02500
H46         H  0.61092321  0.04977272  0.02213906     0.17100
H47         H  0.64810041  0.11099358  0.42827291     0.16900
O48         O  0.88555165  0.22773965  0.14009663    -0.76300
C49         C  0.96079689  0.13622223  0.09093415     0.84700
O50         O  0.85995705  0.19748246  0.49613410    -0.77400
O51         O  0.89665521  0.02814231  0.03719121    -0.78900
O52         O  0.84148716  0.07040374  0.16999419    -0.78700
O53         O  0.84126991  0.19746686  0.17258148    -0.77400
Zn54       Zn  0.89725931  0.19023769  0.08703093     1.55700
O55         O  0.88777079  0.03774826  0.14444971    -0.78700
Cd56       Cd  0.83569580  0.13432205  0.13098728     1.59700
Cd57       Cd  0.85425613  0.13025704  0.02172149     1.59600
O58         O  0.78979989  0.13121564  0.09799301    -0.78700
O59         O  0.87116557  0.13320229  0.08325559    -1.89200
Cd60       Cd  0.89989017  0.07568274  0.08926077     1.59900
O61         O  0.80556026  0.12521179  0.02695362    -0.78700
O62         O  0.94772913  0.09482595  0.09234862    -0.77400
C63         C  0.87922626  0.23241163  0.50298481     0.85200
C64         C  0.86387100  0.22936820  0.17020706     0.84800
O65         O  0.94443122  0.17502330  0.08921716    -0.76300
C66         C  0.86376450  0.03781943  0.17109077     0.85700
O67         O  0.89183296  0.23378519  0.03469261    -0.76400
C68         C  0.78354244  0.12595688  0.05665216     0.85800
C69         C  0.87673070  0.03706647  0.50825468     0.86100
O70         O  0.86008364  0.07470118  0.49900210    -0.78800
C71         C  0.94764822  0.38312269  0.38107912     0.88600
C72         C  0.93613346  0.33948405  0.40821865    -0.51600
C73         C  0.90364205  0.33971968  0.41724582     0.11600
C74         C  0.88535062  0.38381082  0.39814146     0.22500
C75         C  0.92669634  0.38325319  0.33950574    -0.52300
C76         C  0.89392441  0.38321629  0.34799290     0.11700
C77         C  0.93633440  0.42717742  0.40750888    -0.51800
C78         C  0.90387245  0.42783829  0.41684508     0.12200
H79         H  0.95236686  0.31128271  0.42004074     0.16800
H80         H  0.85889719  0.38415506  0.40563690     0.02500
H81         H  0.93685608  0.38415560  0.30616173     0.17100
H82         H  0.95281101  0.45484082  0.41901910     0.16900
C83         C  0.84964716  0.42471359  0.24346126     0.88600
C84         C  0.81598584  0.42273919  0.26543838    -0.51600
C85         C  0.81189846  0.38485191  0.29460279     0.11600
C86         C  0.84242599  0.35283918  0.29956571     0.22500
C87         C  0.87361245  0.42559761  0.28150521    -0.52300
C88         C  0.87022694  0.38851435  0.31121224     0.11700
C89         C  0.85391236  0.37467781  0.22273469    -0.51800
C90         C  0.84973049  0.33646452  0.25136319     0.12200
H91         H  0.79668402  0.44798500  0.25726461     0.16800
H92         H  0.83938279  0.32234776  0.32334444     0.02500
H93         H  0.89224870  0.45303780  0.28434370     0.17100
H94         H  0.85763699  0.37011060  0.18735452     0.14900
O95         O  0.43860326  0.15712335  0.09008728    -0.76300
C96         C  0.34804396  0.20570289  0.02497261     0.84700
O97         O  0.36984501  0.18305129  0.20749701    -0.77400
O98         O  0.28334152  0.11735741  0.11336788    -0.78900
O99         O  0.37759586  0.01699109  0.05619232    -0.78700
O100        O  0.44115052  0.07717808  0.09860374    -0.77400
Zn101      Zn  0.39187857  0.17455597  0.10049050     1.55700
O102        O  0.33022821  0.05001684  0.03661132    -0.78700
Cd103      Cd  0.39319360  0.05884630  0.10845558     1.59700
Cd104      Cd  0.35181720  0.12320473  0.17747475     1.59600
O105        O  0.39265128  0.01914868  0.16682653    -0.78700
O106        O  0.36593552  0.11799787  0.11457571    -1.89200
Cd107      Cd  0.32685059  0.11311620  0.07522088     1.59900
O108        O  0.36612152  0.06559963  0.21535182    -0.78700
O109        O  0.32740316  0.17197438  0.03132949    -0.77400
C110        C  0.38490239  0.21911081  0.19154008     0.85200
C111        C  0.45462668  0.11792946  0.09243381     0.84800
O112        O  0.37362848  0.20902332  0.04808020    -0.76300
C113        C  0.35226920  0.01761672  0.03215748     0.85700
O114        O  0.39332963  0.22179188  0.15099694    -0.76400
C115        C  0.38203616  0.02777016  0.20574280     0.85800
C116        C  0.27913381  0.12603334  0.15468127     0.86100
O117        O  0.30268832  0.12933269  0.18125363    -0.78800
C118        C  0.40297042  0.32670416  0.27965306     0.88600
C119        C  0.38417925  0.31873439  0.32287452    -0.51600
C120        C  0.38822224  0.35468438  0.35319487     0.11600
C121        C  0.41124534  0.39523516  0.33710771     0.22500
C122        C  0.39219670  0.37612892  0.26299425    -0.52300
C123        C  0.39631441  0.41197385  0.29292460     0.11700
C124        C  0.43827247  0.33272102  0.29318591    -0.51800
C125        C  0.44286515  0.36840774  0.32328446     0.12200
H126        H  0.36863083  0.28766988  0.32873030     0.16800
H127        H  0.41483584  0.42456031  0.36143840     0.02500
H128        H  0.38217029  0.38235722  0.23026005     0.17100
H129        H  0.45799553  0.31077458  0.28000392     0.16900
C130        C  0.34774207  0.31141821  0.46063237     0.88600
C131        C  0.31524592  0.33037079  0.44415145    -0.51600
C132        C  0.31702411  0.37356321  0.42191219     0.11600
C133        C  0.35182372  0.39404187  0.41836001     0.22500
C134        C  0.36938202  0.30961207  0.41943597    -0.52300
C135        C  0.37174463  0.35248734  0.39701913     0.11700
C136        C  0.36147589  0.35237715  0.48854601    -0.51800
C137        C  0.36340345  0.39589688  0.46711291     0.12200
H138        H  0.29267708  0.31075201  0.44897842     0.16800
H139        H  0.35339474  0.42893176  0.40009505     0.02500
H140        H  0.38121759  0.27668981  0.40829118     0.17100
H141        H  0.36202750  0.36958074  0.01633774     0.16900
O142        O  0.11696682  0.48575711  0.32319620    -0.76300
C143        C  0.04739431  0.38573988  0.36983013     0.84700
O144        O  0.14336576  0.45267109  0.47910092    -0.77400
O145        O  0.11691177  0.28685070  0.42545471    -0.78900
O146        O  0.17726693  0.34433570  0.29787300    -0.78700
O147        O  0.16550457  0.46397506  0.29658547    -0.77400
Zn148      Zn  0.10777829  0.44833271  0.37869970     1.55700
O149        O  0.13310981  0.30162019  0.31653786    -0.78700
Cd150      Cd  0.17491607  0.40436702  0.33855928     1.59700
Cd151      Cd  0.15525026  0.39175156  0.44381705     1.59600
O152        O  0.22008299  0.40863427  0.37106991    -0.78700
O153        O  0.13785945  0.39510426  0.38266140    -1.89200
Cd154      Cd  0.11346702  0.33433057  0.37180780     1.59900
O155        O  0.20465911  0.39170397  0.44062042    -0.78700
O156        O  0.06388115  0.34721919  0.36410744    -0.77400
C157        C  0.12757390  0.49008632  0.46748753     0.85200
C158        C  0.13994447  0.49027238  0.29498945     0.84800
O159        O  0.06090034  0.42614772  0.37715628    -0.76300
C160        C  0.15841500  0.30848575  0.29251305     0.85700
O161        O  0.11344094  0.49346070  0.43028757    -0.76400
C162        C  0.22663993  0.39990886  0.41172138     0.85800
C163        C  0.12704756  0.29145779  0.46493389     0.86100
O164        O  0.14090078  0.32976891  0.47801956    -0.78800
C165        C  0.05896073  0.14172819  0.07771890     0.88600
C166        C  0.07174770  0.09541874  0.05672436    -0.51600
C167        C  0.10445318  0.09544184  0.05007455     0.11600
C168        C  0.12150223  0.14177088  0.06523299     0.22500
C169        C  0.07785592  0.14736908  0.12033260    -0.52300
C170        C  0.11063152  0.14714345  0.11406325     0.11700
C171        C  0.07062699  0.18259389  0.04720556    -0.51800
C172        C  0.10339401  0.18271660  0.04049741     0.12200
H173        H  0.05624839  0.06577604  0.04685831     0.16800
H174        H  0.14822414  0.14185057  0.05988803     0.02500
H175        H  0.06642522  0.15167839  0.15267795     0.17100
H176        H  0.05442722  0.20872238  0.03185977     0.16900
C177        C  0.15047429  0.19683865  0.21710105     0.88600
C178        C  0.18513427  0.18542071  0.20065484    -0.51600
C179        C  0.18749543  0.14356495  0.17661420     0.11600
C180        C  0.15494951  0.11697868  0.17180410     0.22500
C181        C  0.12991091  0.19690611  0.17541343    -0.52300
C182        C  0.13230079  0.15548702  0.15150939     0.11700
C183        C  0.13979858  0.15189583  0.24285000    -0.51800
C184        C  0.14203801  0.11008195  0.21986856     0.12200
H185        H  0.20573511  0.20881929  0.20577879     0.16800
H186        H  0.15644193  0.08302228  0.15254578     0.02500
H187        H  0.11383613  0.22649478  0.16632909     0.17100
H188        H  0.13085245  0.15309647  0.27684448     0.16900
C189        C  0.16668240  0.27272741  0.25823239    -0.14300
C190        C  0.14431097  0.24103361  0.24487624    -0.29400
H191        H  0.19141077  0.27159269  0.24576265     0.14800
H192        H  0.11945256  0.24514765  0.25682822     0.15300
C193        C  0.15135306  0.02669523  0.24683101    -0.14300
C194        C  0.13135988  0.06455489  0.24162562    -0.29400
H195        H  0.11490926  0.55258401  0.26734949     0.14800
H196        H  0.10927492  0.06626880  0.26156995     0.15300
C197        C  0.12179901  0.25231933  0.49598449    -0.11100
C198        C  0.11839212  0.21785476  0.01117070    -0.12700
C199        C  0.11987550  0.05663588  0.02663401    -0.11100
C200        C  0.12143068  0.03104221  0.48238475    -0.12700
C201        C  0.28738006  0.39614645  0.40309116    -0.14300
C202        C  0.26015878  0.39580000  0.42792270    -0.29400
H203        H  0.28714613  0.40751507  0.36860232     0.14800
H204        H  0.26224362  0.38592025  0.46276300     0.15300
C205        C  0.24679581  0.13562695  0.17418693    -0.14300
C206        C  0.21821239  0.12732930  0.15488735    -0.29400
H207        H  0.24677663  0.15108060  0.20715484     0.14800
H208        H  0.21721308  0.10855394  0.12352421     0.15300
C209        C  0.34163498  0.24309641  0.99090586    -0.14300
C210        C  0.34513266  0.26379432  0.48520660    -0.29400
H211        H  0.31896420  0.24115546  0.97324483     0.14800
H212        H  0.32142526  0.24830191  0.49233367     0.15300
C213        C  0.37413129  0.43912320  0.49201749    -0.14300
C214        C  0.37308400  0.46683592  0.01418613    -0.29400
H215        H  0.34364476  0.48891180  0.96070278     0.14800
H216        H  0.32527440  0.97774746  0.98067748     0.15300
C217        C  0.38079163  0.49513513  0.25866106    -0.11100
C218        C  0.38766910  0.46058600  0.28108869    -0.12700
C219        C  0.39263471  0.25767235  0.22065256    -0.11100
C220        C  0.39800611  0.28875951  0.24710473    -0.12700
C221        C  0.01237315  0.38351905  0.36940267    -0.11100
C222        C  0.98303631  0.38285622  0.37253832    -0.12700
C223        C  0.85479949  0.46512496  0.20978373    -0.14300
C224        C  0.86278218  0.99703783  0.20272987    -0.29400
H225        H  0.86378674  0.45511383  0.17712075     0.14800
H226        H  0.88441380  0.97453220  0.20477560     0.15300
C227        C  0.84769227  0.28546207  0.23442081    -0.14300
C228        C  0.86626299  0.27243191  0.19938073    -0.29400
H229        H  0.82990425  0.26076511  0.24845305     0.14800
H230        H  0.88509466  0.29762069  0.18898128     0.15300
C231        C  0.89010032  0.46513110  0.44535268    -0.11100
C232        C  0.88028950  0.99913854  0.47563403    -0.12700
C233        C  0.88246288  0.27033810  0.47043898    -0.11100
C234        C  0.88930449  0.30266127  0.44498021    -0.12700
C235        C  0.02404526  0.14121676  0.08485728    -0.11100
C236        C  0.99517835  0.13926031  0.08936432    -0.12700
C237        C  0.75063169  0.11770109  0.03953164    -0.14300
C238        C  0.72217624  0.12557833  0.06018555    -0.29400
H239        H  0.75011303  0.10534576  0.00543667     0.14800
H240        H  0.72132740  0.14203601  0.09269162     0.15300
C241        C  0.51797347  0.12236162  0.09833558    -0.11100
C242        C  0.48925521  0.12027618  0.09194874    -0.12700
C243        C  0.75327181  0.37435824  0.28781519    -0.14300
C244        C  0.77957470  0.37184784  0.31370651    -0.29400
H245        H  0.75668810  0.38443254  0.25320284     0.14800
H246        H  0.77768463  0.35865242  0.34756262     0.15300
C247        C  0.63262757  0.00657505  0.44487611    -0.14300
C248        C  0.66090508  0.01955591  0.46268496    -0.29400
H249        H  0.61147212  0.02963240  0.44964514     0.14800
H250        H  0.68245014  0.99770170  0.45662759     0.15300
C251        C  0.63558993  0.21149847  0.43095785    -0.14300
C252        C  0.65523545  0.20276084  0.46561053    -0.29400
H253        H  0.61930525  0.18318242  0.42038102     0.14800
H254        H  0.66998220  0.23171381  0.47855103     0.15300
C255        C  0.60615111  0.04459233  0.18256787    -0.11100
C256        C  0.61206489  0.01225803  0.20852574    -0.12700
C257        C  0.61187714  0.23759577  0.20348441    -0.11100
C258        C  0.60552704  0.20622914  0.17743897    -0.12700
C259        C  0.50435988  0.37995865  0.34420289    -0.11100
C260        C  0.47531282  0.37857640  0.33862675    -0.12700
O261        O  0.61428035  0.27716536  0.88355395    -0.76300
C262        C  0.54757484  0.38906566  0.83793224     0.84700
O263        O  0.64543382  0.30895800  0.73073198    -0.77400
O264        O  0.62297640  0.47949351  0.78075826    -0.78900
O265        O  0.67427908  0.41765044  0.91449792    -0.78700
O266        O  0.66268004  0.29699345  0.91042144    -0.77400
Zn267      Zn  0.60558523  0.31899824  0.82986232     1.55700
O268        O  0.63530870  0.46740184  0.89050162    -0.78700
Cd269      Cd  0.67268351  0.35920122  0.87193944     1.59700
Cd270      Cd  0.65729237  0.37035168  0.76556075     1.59600
O271        O  0.71893737  0.35801958  0.84157114    -0.78700
O272        O  0.63756546  0.37010704  0.82630443    -1.89200
Cd273      Cd  0.61576423  0.43414841  0.83544904     1.59900
O274        O  0.70667760  0.37165095  0.77066556    -0.78700
O275        O  0.56539758  0.42635372  0.84169945    -0.77400
C276        C  0.62607309  0.27477134  0.74062059     0.85200
C277        C  0.63736296  0.27033940  0.91075061     0.84800
O278        O  0.55966678  0.34692416  0.83295008    -0.76300
C279        C  0.65830466  0.45703249  0.91711028     0.85700
O280        O  0.60943927  0.27448660  0.77648098    -0.76400
C281        C  0.72732303  0.36633187  0.80132328     0.85800
C282        C  0.63338763  0.47227442  0.74144610     0.86100
O283        O  0.64522982  0.43185853  0.72940105    -0.78800
C284        C  0.56602708  0.11821476  0.61806049     0.88600
C285        C  0.57466334  0.16332021  0.64414033    -0.51600
C286        C  0.60651150  0.16520338  0.65575751     0.11600
C287        C  0.62699241  0.12164181  0.63961125     0.22500
C288        C  0.58890034  0.11809248  0.57820257    -0.52300
C289        C  0.62101197  0.11956639  0.58898482     0.11700
C290        C  0.57677632  0.07577009  0.64700744    -0.51800
C291        C  0.60852833  0.07743145  0.65861971     0.12200
H292        H  0.55695370  0.19049754  0.65393439     0.16800
H293        H  0.65297566  0.12283269  0.64897761     0.02500
H294        H  0.58056962  0.11423039  0.54437754     0.17100
H295        H  0.56044934  0.04734485  0.65827286     0.16900
C296        C  0.65575050  0.07668153  0.98315502     0.88600
C297        C  0.68839449  0.07772970  0.00701723    -0.51600
C298        C  0.70194323  0.11601789  0.52789715     0.11600
C299        C  0.67019505  0.14499072  0.53422206     0.22500
C300        C  0.64305254  0.06685731  0.53084077    -0.52300
C301        C  0.64579189  0.10837981  0.55461467     0.11700
C302        C  0.65276420  0.12663847  0.96162244    -0.51800
C303        C  0.65561332  0.16445458  0.98999413     0.12200
H304        H  0.70734580  0.05117022  0.00104329     0.16800
H305        H  0.67299315  0.17869745  0.55348054     0.02500
H306        H  0.62585408  0.03857275  0.53953480     0.17100
H307        H  0.64960880  0.13171669  0.92620616     0.16900
O308        O  0.89544148  0.23568359  0.64455669    -0.76300
C309        C  0.96180565  0.12929196  0.59985200     0.84700
O310        O  0.86502936  0.19143329  0.98470258    -0.77400
O311        O  0.89124552  0.03225070  0.54511146    -0.78900
O312        O  0.84376075  0.08994334  0.68798462    -0.78700
O313        O  0.85163301  0.21051594  0.68158868    -0.77400
Zn314      Zn  0.90217237  0.19308660  0.59209370     1.55700
O315        O  0.87975565  0.04085228  0.65532115    -0.78700
Cd316      Cd  0.84099291  0.14859246  0.64479987     1.59700
Cd317      Cd  0.84934824  0.13729497  0.53526017     1.59600
O318        O  0.79339348  0.15112537  0.62135863    -0.78700
O319        O  0.87233747  0.13946922  0.59325304    -1.89200
Cd320      Cd  0.89656817  0.07715688  0.59976443     1.59900
O321        O  0.80049761  0.13908862  0.54877047    -0.78700
O322        O  0.94590280  0.09027815  0.60515072    -0.77400
C323        C  0.87977503  0.22939820  0.99645940     0.85200
C324        C  0.87514798  0.23997455  0.67629097     0.84800
O325        O  0.94809341  0.16987265  0.59349350    -0.76300
C326        C  0.85953103  0.05031378  0.68640566     0.85700
O327        O  0.89637054  0.23472133  0.53768407    -0.76400
C328        C  0.78210040  0.14513429  0.58255983     0.85800
C329        C  0.88453910  0.03213102  0.99882745     0.86100
O330        O  0.86891014  0.06955391  0.98670127    -0.78800
C331        C  0.95431172  0.38228205  0.88393614     0.88600
C332        C  0.94187627  0.33735774  0.90850412    -0.51600
C333        C  0.90949005  0.33936270  0.91833186     0.11600
C334        C  0.89249926  0.38598222  0.90298005     0.22500
C335        C  0.93288437  0.38713222  0.84329411    -0.52300
C336        C  0.90044644  0.38862007  0.85300751     0.11700
C337        C  0.94493836  0.42481887  0.91355439    -0.51800
C338        C  0.91266761  0.42690023  0.92377508     0.12200
H339        H  0.95724170  0.30694673  0.91755958     0.16800
H340        H  0.86615351  0.38760367  0.91110160     0.02500
H341        H  0.94245757  0.38937409  0.80966380     0.17100
H342        H  0.96238483  0.45065487  0.92591257     0.16900
C343        C  0.85711249  0.43217525  0.74965287     0.88600
C344        C  0.82282239  0.42804638  0.76996619    -0.51600
C345        C  0.81907002  0.38941351  0.79831850     0.11600
C346        C  0.85013211  0.35910367  0.80426712     0.22500
C347        C  0.87993877  0.43353197  0.78880409    -0.52300
C348        C  0.87650271  0.39580494  0.81758532     0.11700
C349        C  0.86304475  0.38305487  0.72837643    -0.51800
C350        C  0.85937411  0.34442635  0.75645853     0.12200
H351        H  0.80272027  0.45147845  0.76115281     0.16800
H352        H  0.84734520  0.32792977  0.82736095     0.02500
H353        H  0.89831251  0.46122157  0.79264544     0.17100
H354        H  0.86803791  0.37936788  0.69316542     0.14900
O355        O  0.45313635  0.14942911  0.60580746    -0.76300
C356        C  0.37135053  0.20345081  0.53396169     0.84700
O357        O  0.37639902  0.18109760  0.71681070    -0.77400
O358        O  0.29673516  0.11953925  0.61069805    -0.78900
O359        O  0.38947136  0.01069716  0.57696847    -0.78700
O360        O  0.45424575  0.06959233  0.61290062    -0.77400
Zn361      Zn  0.40712137  0.16790437  0.61417907     1.55700
O362        O  0.34721405  0.04618529  0.54363585    -0.78700
Cd363      Cd  0.40575948  0.05543274  0.62494110     1.59700
Cd364      Cd  0.35948666  0.12069715  0.68597661     1.59600
O365        O  0.40333636  0.01927722  0.68475193    -0.78700
O366        O  0.37839683  0.11438102  0.62528909    -1.89200
Cd367      Cd  0.34290098  0.11206725  0.57916151     1.59900
O368        O  0.36987577  0.06289032  0.72711136    -0.78700
O369        O  0.34882083  0.17171533  0.53557350    -0.77400
C370        C  0.39473429  0.21441870  0.70216353     0.85200
C371        C  0.46841679  0.10975861  0.60666565     0.84800
O372        O  0.39442014  0.20370901  0.56125956    -0.76300
C373        C  0.36723201  0.01088323  0.54808410     0.85700
O374        O  0.40703956  0.21407041  0.66359887    -0.76400
C375        C  0.38833295  0.02663201  0.72109869     0.85800
C376        C  0.28928729  0.12772614  0.65130820     0.86100
O377        O  0.31046556  0.12898728  0.68158621    -0.78800
C378        C  0.41211611  0.33118292  0.77850040     0.88600
C379        C  0.39343579  0.32811826  0.82191087    -0.51600
C380        C  0.39680199  0.36761632  0.84808699     0.11600
C381        C  0.41897187  0.40719043  0.82761317     0.22500
C382        C  0.40041661  0.37734775  0.75622851    -0.52300
C383        C  0.40382220  0.41724517  0.78167781     0.11700
C384        C  0.44728060  0.34043759  0.79102780    -0.51800
C385        C  0.45121925  0.38014398  0.81677275     0.12200
H386        H  0.37874974  0.29707558  0.83137030     0.16800
H387        H  0.42188758  0.43962816  0.84857079     0.02500
H388        H  0.39039333  0.37850331  0.72305883     0.17100
H389        H  0.46736298  0.31752502  0.78052720     0.16900
C390        C  0.35740828  0.32333331  0.95433507     0.88600
C391        C  0.32506465  0.32834595  0.92976879    -0.51600
C392        C  0.32249996  0.36979766  0.90489345     0.11600
C393        C  0.35295995  0.40178925  0.90576461     0.22500
C394        C  0.38348376  0.32745544  0.91846707    -0.52300
C395        C  0.38115462  0.36781033  0.89232945     0.11700
C396        C  0.36003186  0.36988719  0.98051165    -0.51800
C397        C  0.35787352  0.41127096  0.95552423     0.12200
H398        H  0.30503279  0.30331426  0.93316658     0.16800
H399        H  0.35100894  0.43507741  0.88517352     0.02500
H400        H  0.40074358  0.29857148  0.91176104     0.17100
H401        H  0.36820731  0.34757824  0.52300911     0.16900
O402        O  0.12267904  0.49222206  0.82200777    -0.76300
C403        C  0.05263315  0.38447340  0.86341787     0.84700
O404        O  0.14948704  0.44808961  0.97292372    -0.77400
O405        O  0.12155753  0.28425842  0.91501273    -0.78900
O406        O  0.17787345  0.34499536  0.78342665    -0.78700
O407        O  0.16942881  0.46884898  0.79082064    -0.77400
Zn408      Zn  0.11241908  0.44788065  0.87292768     1.55700
O409        O  0.13669621  0.29858992  0.80659467    -0.78700
Cd410      Cd  0.17764506  0.40366676  0.82702661     1.59700
Cd411      Cd  0.16039838  0.38868573  0.93422938     1.59600
O412        O  0.22339990  0.40168206  0.85808296    -0.78700
O413        O  0.14217394  0.39382839  0.87335780    -1.89200
Cd414      Cd  0.11812889  0.33252395  0.86212794     1.59900
O415        O  0.20950336  0.38509137  0.92840831    -0.78700
O416        O  0.06885343  0.34596867  0.85668977    -0.77400
C417        C  0.13143953  0.48421673  0.96434496     0.85200
C418        C  0.14545202  0.49834990  0.79370772     0.84800
O419        O  0.06610686  0.42502125  0.87006101    -0.76300
C420        C  0.16050756  0.30703445  0.78028568     0.85700
O421        O  0.11630862  0.48819853  0.92800684    -0.76400
C422        C  0.23078861  0.39129294  0.89815926     0.85800
C423        C  0.13183185  0.28844907  0.95441795     0.86100
O424        O  0.14583423  0.32651240  0.96765198    -0.78800
C425        C  0.06014499  0.13194235  0.58400523     0.88600
C426        C  0.07134784  0.09113399  0.55396313    -0.51600
C427        C  0.10335149  0.09346093  0.54278416     0.11600
C428        C  0.12161138  0.13617425  0.56337870     0.22500
C429        C  0.08223864  0.12953169  0.62416138    -0.52300
C430        C  0.11458279  0.13190655  0.61377579     0.11700
C431        C  0.06968018  0.17848157  0.55930581    -0.51800
C432        C  0.10183880  0.18067743  0.54826191     0.12200
H433        H  0.05510859  0.06385983  0.54111446     0.16800
H434        H  0.14779117  0.13800206  0.55434311     0.02500
H435        H  0.07311256  0.12926276  0.65806425     0.17100
H436        H  0.05237631  0.20642730  0.55011066     0.16900
C437        C  0.15868953  0.18824158  0.71107773     0.88600
C438        C  0.19208753  0.18540610  0.68793004    -0.51600
C439        C  0.19663061  0.14440490  0.66320889     0.11600
C440        C  0.16700461  0.11052009  0.66335018     0.22500
C441        C  0.13418273  0.18312310  0.67401071    -0.52300
C442        C  0.13832757  0.14298295  0.64871348     0.11700
C443        C  0.15625083  0.14096365  0.73753547    -0.51800
C444        C  0.16053552  0.09993007  0.71316279     0.12200
H445        H  0.21099778  0.21211849  0.69166298     0.16800
H446        H  0.17039104  0.07749930  0.64315863     0.02500
H447        H  0.11462470  0.20888178  0.66859110     0.17100
H448        H  0.15255581  0.14045547  0.77320385     0.16900
C449        C  0.16915230  0.27062712  0.74624760    -0.14300
C450        C  0.15073855  0.23107625  0.74043247    -0.29400
H451        H  0.19138654  0.27583392  0.72738453     0.14800
H452        H  0.12793486  0.22825881  0.75871376     0.15300
C453        C  0.14338481  0.04134493  0.77102271    -0.14300
C454        C  0.16152123  0.05088133  0.73451686    -0.29400
H455        H  0.12534394  0.56918207  0.77779891     0.14800
H456        H  0.17776555  0.02358464  0.72113212     0.15300
C457        C  0.12636258  0.24939656  0.98540127    -0.11100
C458        C  0.11461397  0.21948804  0.52085438    -0.12700
C459        C  0.11645605  0.06113275  0.51018605    -0.11100
C460        C  0.12694169  0.02319258  0.00325199    -0.12700
C461        C  0.29107304  0.38572328  0.88605251    -0.14300
C462        C  0.26451639  0.38338904  0.91204516    -0.29400
H463        H  0.28989132  0.39932724  0.85230136     0.14800
H464        H  0.26746072  0.37229333  0.94643707     0.15300
C465        C  0.25578202  0.13875299  0.66591605    -0.14300
C466        C  0.22854895  0.13120460  0.64297930    -0.29400
H467        H  0.25350918  0.15342656  0.69909685     0.14800
H468        H  0.22944611  0.11272471  0.61143939     0.15300
C469        C  0.37185749  0.24274864  0.50111979    -0.14300
C470        C  0.36264961  0.27965740  0.98392131    -0.29400
H471        H  0.39516618  0.26000261  0.49487784     0.14800
H472        H  0.38542251  0.27954735  0.00180257     0.15300
C473        C  0.35751261  0.45994328  0.97595196    -0.14300
C474        C  0.36092135  0.48339243  0.48738007    -0.29400
H475        H  0.39021563  0.43239948  0.51971341     0.14800
H476        H  0.38013651  0.93675905  0.53324766     0.15300
C477        C  0.38716158  0.49553606  0.73857799    -0.11100
C478        C  0.39454092  0.46349515  0.76380473    -0.12700
C479        C  0.40185069  0.25403544  0.72974116    -0.11100
C480        C  0.40755913  0.28866875  0.75164858    -0.12700
C481        C  0.01793658  0.38176019  0.86621592    -0.11100
C482        C  0.98907350  0.38083194  0.87304557    -0.12700
C483        C  0.86420926  0.47239859  0.71696161    -0.14300
C484        C  0.85383024  0.01363443  0.72128338    -0.29400
H485        H  0.88649658  0.46867012  0.69767319     0.14800
H486        H  0.84449955  0.02460570  0.75345019     0.15300
C487        C  0.85977193  0.29402734  0.73953076    -0.14300
C488        C  0.87899760  0.28255616  0.70483727    -0.29400
H489        H  0.84237542  0.26822928  0.75280641     0.14800
H490        H  0.89747057  0.30816050  0.69414564     0.15300
C491        C  0.90003108  0.46367601  0.95332339    -0.11100
C492        C  0.88953010  0.99337074  0.96809405    -0.12700
C493        C  0.88455739  0.26810902  0.96550007    -0.11100
C494        C  0.89356369  0.30121007  0.94251986    -0.12700
C495        C  0.02549454  0.12931191  0.59473203    -0.11100
C496        C  0.99648840  0.12781291  0.59941100    -0.12700
C497        C  0.74654483  0.14256870  0.57630705    -0.14300
C498        C  0.73480475  0.13415535  0.53582274    -0.29400
H499        H  0.73043993  0.14228182  0.60503158     0.14800
H500        H  0.75135069  0.13224555  0.50761266     0.15300
C501        C  0.53176989  0.11501079  0.60687628    -0.11100
C502        C  0.50290726  0.11125494  0.60336583    -0.12700
C503        C  0.76155247  0.37300708  0.78806265    -0.14300
C504        C  0.78681033  0.37432639  0.81575657    -0.29400
H505        H  0.76591536  0.38079796  0.75314917     0.14800
H506        H  0.78399419  0.36438144  0.85040917     0.15300
C507        C  0.65521101  0.98973438  0.95756031    -0.14300
C508        C  0.65137709  0.03716646  0.94926872    -0.29400
H509        H  0.66407360  0.97751828  0.98950409     0.14800
H510        H  0.64438739  0.04814317  0.91603193     0.15300
C511        C  0.63460275  0.22748896  0.94021343    -0.14300
C512        C  0.65514393  0.21523392  0.97298021    -0.29400
H513        H  0.61556285  0.20214935  0.93180871     0.14800
H514        H  0.67322445  0.24054672  0.98439891     0.15300
C515        C  0.62146677  0.04160100  0.68874919    -0.11100
C516        C  0.62655417  0.00927161  0.71493250    -0.12700
C517        C  0.62272672  0.23536448  0.71014364    -0.11100
C518        C  0.61782010  0.20276437  0.68470452    -0.12700
C519        C  0.51260345  0.39447281  0.83717087    -0.11100
C520        C  0.48355236  0.39297028  0.83118228    -0.12700
O521        O  0.60793083  0.77261969  0.38185342    -0.76300
C522        C  0.53173958  0.87158023  0.33634271     0.84700
O523        O  0.63422946  0.81448398  0.22981673    -0.77400
O524        O  0.59956777  0.97634986  0.27691653    -0.78900
O525        O  0.65052583  0.93140174  0.41399397    -0.78700
O526        O  0.65060809  0.80495649  0.41505548    -0.77400
Zn527      Zn  0.59526895  0.81433822  0.33005645     1.55700
O528        O  0.60691425  0.96878320  0.38598229    -0.78700
Cd529      Cd  0.65588737  0.86855809  0.37575011     1.59700
Cd530      Cd  0.64393524  0.87461621  0.26712654     1.59600
O531        O  0.70304859  0.86783473  0.34817905    -0.78700
O532        O  0.62239087  0.87123729  0.32672437    -1.89200
Cd533      Cd  0.59436645  0.93017751  0.33126307     1.59900
O534        O  0.69277386  0.87346217  0.27579144    -0.78700
O535        O  0.54581293  0.91237447  0.33601291    -0.77400
C536        C  0.61767796  0.77719095  0.23953937     0.85200
C537        C  0.62975288  0.77109491  0.41139384     0.84800
O538        O  0.54746151  0.83191492  0.33462547    -0.76300
C539        C  0.62993483  0.96622109  0.41364787     0.85700
O540        O  0.60203000  0.77301442  0.27591898    -0.76400
C541        C  0.71249028  0.87033177  0.30775654     0.85800
C542        C  0.61515674  0.97337258  0.24039912     0.86100
O543        O  0.63273951  0.93688329  0.23097057    -0.78800
C544        C  0.55789102  0.61910372  0.12305705     0.88600
C545        C  0.56724506  0.66426186  0.14838607    -0.51600
C546        C  0.59949326  0.66662608  0.15736637     0.11600
C547        C  0.61957024  0.62343692  0.14002676     0.22500
C548        C  0.57910694  0.61936648  0.08154155    -0.52300
C549        C  0.61157074  0.62161064  0.09009249     0.11700
C550        C  0.56998709  0.57675330  0.15099482    -0.51800
C551        C  0.60216072  0.57879729  0.16017457     0.12200
H552        H  0.54983582  0.69142627  0.15918675     0.16800
H553        H  0.64589799  0.62508687  0.14741758     0.02500
H554        H  0.56946675  0.61611376  0.04833246     0.17100
H555        H  0.55430118  0.54798499  0.16322216     0.16900
C556        C  0.65655552  0.57420250  0.47573727     0.88600
C557        C  0.69205923  0.57591568  0.48887411    -0.51600
C558        C  0.69392989  0.61403468  0.04033705     0.11600
C559        C  0.66392587  0.64740331  0.04153254     0.22500
C560        C  0.63225093  0.57520781  0.02679328    -0.52300
C561        C  0.63551974  0.61363006  0.05421631     0.11700
C562        C  0.64965648  0.62442047  0.45616476    -0.51800
C563        C  0.65666450  0.66212241  0.48350806     0.12200
H564        H  0.71012352  0.55081820  0.47605742     0.16800
H565        H  0.66639409  0.67918278  0.06344251     0.02500
H566        H  0.61304703  0.54866547  0.03088301     0.17100
H567        H  0.64121606  0.62956222  0.42250618     0.16900
O568        O  0.88652892  0.74031553  0.14375139    -0.76300
C569        C  0.96298578  0.63524956  0.10466633     0.84700
O570        O  0.86095524  0.69704339  0.49018582    -0.77400
O571        O  0.89741318  0.53046924  0.04926824    -0.78900
O572        O  0.83854075  0.58740131  0.18120841    -0.78700
O573        O  0.83968200  0.71293479  0.17163315    -0.77400
Zn574      Zn  0.90100932  0.69544852  0.09467678     1.55700
O575        O  0.87999302  0.54200947  0.15664284    -0.78700
Cd576      Cd  0.83592744  0.64598846  0.13611041     1.59700
Cd577      Cd  0.85723676  0.63369188  0.02952650     1.59600
O578        O  0.79106597  0.63851497  0.10166838    -0.78700
O579        O  0.87322097  0.63911280  0.09162799    -1.89200
Cd580      Cd  0.89896029  0.57851012  0.10219549     1.59900
O581        O  0.80845703  0.62560138  0.03229642    -0.78700
O582        O  0.94792731  0.59525021  0.10851237    -0.77400
C583        C  0.87945640  0.73257315  0.49847850     0.85200
C584        C  0.86222056  0.74489999  0.16991761     0.84800
O585        O  0.94820210  0.67547266  0.10020938    -0.76300
C586        C  0.85638675  0.54950228  0.18351489     0.85700
O587        O  0.89819698  0.73517009  0.03861649    -0.76400
C588        C  0.78577662  0.62833928  0.06093589     0.85800
C589        C  0.87918322  0.53608991  0.50290645     0.86100
O590        O  0.86225705  0.57318764  0.49265517    -0.78800
C591        C  0.94301152  0.89098464  0.37751856     0.88600
C592        C  0.93359421  0.84559602  0.40382954    -0.51600
C593        C  0.90157108  0.84403624  0.41563849     0.11600
C594        C  0.88169124  0.88814881  0.40002480     0.22500
C595        C  0.92013991  0.89214622  0.33795656    -0.52300
C596        C  0.88791836  0.89023843  0.34940255     0.11700
C597        C  0.93222298  0.93326667  0.40665549    -0.51800
C598        C  0.90023625  0.93202680  0.41873988     0.12200
H599        H  0.95081913  0.81749216  0.41290725     0.16800
H600        H  0.85561821  0.88704303  0.40972838     0.02500
H601        H  0.92859042  0.89531090  0.30385052     0.17100
H602        H  0.94866998  0.96123049  0.41763296     0.16900
C603        C  0.83668953  0.93802314  0.25377507     0.88600
C604        C  0.80485897  0.93024021  0.27865991    -0.51600
C605        C  0.80385524  0.88918370  0.30397721     0.11600
C606        C  0.83582607  0.85986171  0.30298364     0.22500
C607        C  0.86255952  0.93744455  0.28952244    -0.52300
C608        C  0.86245118  0.89692962  0.31545950     0.11700
C609        C  0.84215030  0.89109509  0.22757007    -0.51800
C610        C  0.84166530  0.84963628  0.25291152     0.12200
H611        H  0.78404181  0.95408822  0.27491337     0.16800
H612        H  0.83536034  0.82678725  0.32402462     0.02500
H613        H  0.87986282  0.96653212  0.29373784     0.17100
H614        H  0.84473718  0.89095592  0.19176375     0.14900
O615        O  0.44447642  0.65000741  0.11728456    -0.76300
C616        C  0.36972495  0.70475416  0.03583798     0.84700
O617        O  0.35002264  0.67825485  0.21082987    -0.77400
O618        O  0.29182571  0.60615156  0.08867809    -0.78900
O619        O  0.38712471  0.50770201  0.07766501    -0.78700
O620        O  0.44623815  0.56989620  0.11862207    -0.77400
Zn621      Zn  0.39779801  0.66621947  0.12049313     1.55700
O622        O  0.35247991  0.54574287  0.03257035    -0.78700
Cd623      Cd  0.39802288  0.55382005  0.12708314     1.59700
Cd624      Cd  0.34298549  0.61413123  0.17854070     1.59600
O625        O  0.39373518  0.52022826  0.18764874    -0.78700
O626        O  0.36961863  0.61116127  0.12317251    -1.89200
Cd627      Cd  0.34107463  0.60821284  0.06918559     1.59900
O628        O  0.35485238  0.56044908  0.22392226    -0.78700
O629        O  0.34884537  0.67115988  0.03083060    -0.77400
C630        C  0.37121876  0.71064976  0.20379470     0.85200
C631        C  0.46008005  0.61063193  0.11603439     0.84800
O632        O  0.38935009  0.70496383  0.06772761    -0.76300
C633        C  0.37055506  0.50960205  0.04244035     0.85700
O634        O  0.39107399  0.70925145  0.17153231    -0.76400
C635        C  0.37617379  0.52718625  0.22187115     0.85800
C636        C  0.27845086  0.60876967  0.12699344     0.86100
O637        O  0.29497116  0.61076731  0.16241173    -0.78800
C638        C  0.38931746  0.82510923  0.28208192     0.88600
C639        C  0.37039483  0.82979355  0.32519336    -0.51600
C640        C  0.37977470  0.86798799  0.35033646     0.11600
C641        C  0.40701033  0.89865542  0.32905064     0.22500
C642        C  0.38481798  0.87313506  0.25824280    -0.52300
C643        C  0.39400796  0.91162726  0.28274653     0.11700
C644        C  0.42509651  0.82339389  0.29511929    -0.51800
C645        C  0.43443413  0.86197345  0.31957076     0.12200
H646        H  0.35233869  0.80365587  0.33619333     0.16800
H647        H  0.41459153  0.93009575  0.34903962     0.02500
H648        H  0.37538669  0.87651182  0.22485848     0.17100
H649        H  0.44172058  0.79485506  0.28507238     0.16900
C650        C  0.34604314  0.82475012  0.45811265     0.88600
C651        C  0.31361771  0.83107387  0.43485310    -0.51600
C652        C  0.31073037  0.87323215  0.41152010     0.11600
C653        C  0.34126115  0.90484252  0.41257268     0.22500
C654        C  0.37160818  0.82978439  0.42175191    -0.52300
C655        C  0.36883853  0.87086034  0.39677387     0.11700
C656        C  0.34955173  0.86992479  0.48625421    -0.51800
C657        C  0.34721258  0.91238182  0.46262603     0.12200
H658        H  0.29416231  0.80476189  0.43739274     0.16800
H659        H  0.33923794  0.93896114  0.39318601     0.02500
H660        H  0.38768337  0.80018377  0.41259283     0.17100
H661        H  0.36519393  0.85241188  0.02580091     0.16900
O662        O  0.11965380  0.98948604  0.30519122    -0.76300
C663        C  0.04187528  0.89274349  0.35802622     0.84700
O664        O  0.13798829  0.95361455  0.46445414    -0.77400
O665        O  0.10892746  0.78651606  0.41860156    -0.78900
O666        O  0.16463790  0.83831925  0.28420932    -0.78700
O667        O  0.16719208  0.95662803  0.28652990    -0.77400
Zn668      Zn  0.10504089  0.95162133  0.36100657     1.55700
O669        O  0.12135903  0.79697323  0.30877957    -0.78700
Cd670      Cd  0.16841585  0.89574437  0.32664966     1.59700
Cd671      Cd  0.14815595  0.89093449  0.43173744     1.59600
O672        O  0.21307873  0.89204630  0.35845882    -0.78700
O673        O  0.13121363  0.89375282  0.37027255    -1.89200
Cd674      Cd  0.10510347  0.83355011  0.36404445     1.59900
O675        O  0.19720095  0.88572657  0.42916974    -0.78700
O676        O  0.05639006  0.85199906  0.35882576    -0.77400
C677        C  0.12367410  0.99191554  0.45182530     0.85200
C678        C  0.14536373  0.98866196  0.28100129     0.84800
O679        O  0.05719292  0.93276832  0.35804467    -0.76300
C680        C  0.14504505  0.80305178  0.28172342     0.85700
O681        O  0.11063841  0.99610665  0.41382617    -0.76400
C682        C  0.21925431  0.88711359  0.39956898     0.85800
C683        C  0.11958178  0.79242596  0.45768209     0.86100
O684        O  0.13320467  0.83148772  0.46911432    -0.78800
C685        C  0.06194473  0.63431773  0.08502560     0.88600
C686        C  0.07336503  0.59008523  0.05915447    -0.51600
C687        C  0.10580177  0.59023416  0.04956347     0.11600
C688        C  0.12406956  0.63471640  0.06690994     0.22500
C689        C  0.08321173  0.63531982  0.12598266    -0.52300
C690        C  0.11584925  0.63571652  0.11696556     0.11700
C691        C  0.07280179  0.67783504  0.05691434    -0.51800
C692        C  0.10524119  0.67815862  0.04719315     0.12200
H693        H  0.05713773  0.56171809  0.04843987     0.16800
H694        H  0.15047744  0.63500805  0.05908094     0.02500
H695        H  0.07328999  0.63746607  0.15940917     0.17100
H696        H  0.05620350  0.70558226  0.04516610     0.16900
C697        C  0.15358762  0.68167660  0.22271750     0.88600
C698        C  0.18847193  0.68286632  0.20552711    -0.51600
C699        C  0.19617437  0.64662588  0.17683910     0.11600
C700        C  0.16756275  0.61193757  0.16780305     0.22500
C701        C  0.13256517  0.68195947  0.18175592    -0.52300
C702        C  0.13917630  0.64540234  0.15291046     0.11700
C703        C  0.14967786  0.63137487  0.24279239    -0.51800
C704        C  0.15714020  0.59442255  0.21471764     0.12200
H705        H  0.20612046  0.70895311  0.21688169     0.16800
H706        H  0.17331370  0.58203489  0.14472014     0.02500
H707        H  0.11276157  0.70747388  0.17711051     0.17100
H708        H  0.14323315  0.62561880  0.27741421     0.16900
C709        C  0.15081742  0.76723216  0.24708359    -0.14300
C710        C  0.14514877  0.72048016  0.25536866    -0.29400
H711        H  0.16258298  0.77835933  0.21630776     0.14800
H712        H  0.13530462  0.70979608  0.28753483     0.15300
C713        C  0.13621039  0.52984711  0.26236751    -0.14300
C714        C  0.15835523  0.54381154  0.23179999    -0.29400
H715        H  0.17446803  0.02636308  0.22913003     0.14800
H716        H  0.17920631  0.52127737  0.22392465     0.15300
C717        C  0.11588632  0.75392298  0.49011378    -0.11100
C718        C  0.11931909  0.71552070  0.01900380    -0.12700
C719        C  0.12007832  0.55326225  0.02215321    -0.11100
C720        C  0.12498988  0.52948528  0.49771469    -0.12700
C721        C  0.27956100  0.88790540  0.39168266    -0.14300
C722        C  0.25235749  0.88008812  0.41531563    -0.29400
H723        H  0.27897865  0.90484689  0.35916960     0.14800
H724        H  0.25433698  0.86685050  0.44920488     0.15300
C725        C  0.24268270  0.61237135  0.13161668    -0.14300
C726        C  0.23072234  0.63939581  0.16480618    -0.29400
H727        H  0.22682946  0.59535411  0.10794236     0.14800
H728        H  0.24784979  0.65881433  0.18521950     0.15300
C729        C  0.37209209  0.74602905  0.00541969    -0.14300
C730        C  0.34777508  0.77757712  0.48286831    -0.29400
H731        H  0.39531241  0.76452726  0.00329721     0.14800
H732        H  0.32644560  0.75457935  0.48402167     0.15300
C733        C  0.34832524  0.96071666  0.48409796    -0.14300
C734        C  0.34796539  0.97903548  0.99865355    -0.29400
H735        H  0.39197134  0.94332879  0.01258411     0.14800
H736        H  0.38855786  0.43821469  0.02697433     0.15300
C737        C  0.38790882  0.99307684  0.23988714    -0.11100
C738        C  0.39187188  0.95917178  0.26422672    -0.12700
C739        C  0.37361138  0.75000227  0.23330381    -0.11100
C740        C  0.37945327  0.78396140  0.25606857    -0.12700
C741        C  0.00688903  0.89333978  0.35960974    -0.11100
C742        C  0.97780529  0.89260886  0.36556686    -0.12700
C743        C  0.83637300  0.98360212  0.22568577    -0.14300
C744        C  0.84925343  0.51228597  0.21790721    -0.29400
H745        H  0.81432603  0.00511128  0.22352435     0.14800
H746        H  0.83840310  0.52318440  0.24921436     0.15300
C747        C  0.84343749  0.79977884  0.23303687    -0.14300
C748        C  0.86044681  0.79112567  0.19530295    -0.29400
H749        H  0.83079000  0.77034154  0.24964968     0.14800
H750        H  0.87505713  0.82035536  0.18163241     0.15300
C751        C  0.88682552  0.96774133  0.44906401    -0.11100
C752        C  0.88340876  0.49748880  0.47094943    -0.12700
C753        C  0.88261331  0.77144237  0.46688579    -0.11100
C754        C  0.88887508  0.80496817  0.44250075    -0.12700
C755        C  0.02691663  0.63437139  0.09552527    -0.11100
C756        C  0.99792324  0.63472246  0.10222059    -0.12700
C757        C  0.75325790  0.61677017  0.04390067    -0.14300
C758        C  0.72461783  0.62593246  0.06360307    -0.29400
H759        H  0.75317189  0.60099399  0.01103570     0.14800
H760        H  0.72359709  0.64548614  0.09461398     0.15300
C761        C  0.52334331  0.61591219  0.11465499    -0.11100
C762        C  0.49443494  0.61263854  0.11295196    -0.12700
C763        C  0.74697238  0.87219432  0.29509799    -0.14300
C764        C  0.77240841  0.87224915  0.32254611    -0.29400
H765        H  0.75163914  0.87818544  0.25989630     0.14800
H766        H  0.76969507  0.86449561  0.35768715     0.15300
C767        C  0.65417625  0.48715229  0.45220415    -0.14300
C768        C  0.64815880  0.53421961  0.44411988    -0.29400
H769        H  0.66660990  0.47620644  0.48221320     0.14800
H770        H  0.63718160  0.54454784  0.41284914     0.15300
C771        C  0.63064594  0.72648605  0.43905576    -0.14300
C772        C  0.65392498  0.71358013  0.46803961    -0.29400
H773        H  0.61191752  0.70024954  0.43175467     0.14800
H774        H  0.67217030  0.73940354  0.47797320     0.15300
C775        C  0.61644397  0.54248841  0.18863313    -0.11100
C776        C  0.62194324  0.50936711  0.21382021    -0.12700
C777        C  0.61632405  0.73843334  0.20849068    -0.11100
C778        C  0.61177887  0.70512888  0.18396777    -0.12700
C779        C  0.49688293  0.87039039  0.33656311    -0.11100
C780        C  0.46789052  0.86827643  0.33176305    -0.12700
O781        O  0.61581129  0.76886737  0.88249158    -0.76300
C782        C  0.54403778  0.87530696  0.84122885     0.84700
O783        O  0.64412794  0.80823144  0.73068461    -0.77400
O784        O  0.61614722  0.97474395  0.78457555    -0.78900
O785        O  0.66630234  0.91560056  0.92096273    -0.78700
O786        O  0.66192952  0.79430991  0.91252511    -0.77400
Zn787      Zn  0.60492958  0.81170987  0.83059141     1.55700
O788        O  0.62718367  0.96314049  0.89380844    -0.78700
Cd789      Cd  0.66939867  0.85855298  0.87604852     1.59700
Cd790      Cd  0.65482148  0.86841694  0.76858148     1.59600
O791        O  0.71633605  0.86166949  0.84654851    -0.78700
O792        O  0.63459180  0.86607959  0.82906032    -1.89200
Cd793      Cd  0.60987196  0.92791665  0.83834309     1.59900
O794        O  0.70396545  0.87120544  0.77512140    -0.78700
O795        O  0.55995422  0.91457979  0.84434430    -0.77400
C796        C  0.62546670  0.77273390  0.73913342     0.85200
C797        C  0.63843080  0.76433916  0.91071826     0.84800
O798        O  0.55812417  0.83465131  0.83596937    -0.76300
C799        C  0.64911927  0.95401803  0.92232482     0.85700
O800        O  0.60924514  0.76990875  0.77525415    -0.76400
C801        C  0.72464961  0.86844283  0.80597761     0.85800
C802        C  0.62877581  0.96980389  0.74615165     0.86100
O803        O  0.64276265  0.93093205  0.73412961    -0.78800
C804        C  0.56533359  0.61668359  0.61529512     0.88600
C805        C  0.57388728  0.66198687  0.64126099    -0.51600
C806        C  0.60604818  0.66533123  0.65119792     0.11600
C807        C  0.62694925  0.62274995  0.63355630     0.22500
C808        C  0.58716470  0.61803648  0.57435530    -0.52300
C809        C  0.61965425  0.62048152  0.58323091     0.11700
C810        C  0.57785886  0.57452924  0.64329539    -0.51800
C811        C  0.60992261  0.57758857  0.65324594     0.12200
H812        H  0.55590309  0.68816110  0.65233033     0.16800
H813        H  0.65314472  0.62501833  0.64158604     0.02500
H814        H  0.57780865  0.61437257  0.54102665     0.17100
H815        H  0.56245064  0.54531814  0.65526827     0.16900
C816        C  0.65743224  0.57283051  0.98971034     0.88600
C817        C  0.69041267  0.57455032  0.01327722    -0.51600
C818        C  0.69949403  0.61281066  0.51666197     0.11600
C819        C  0.66995381  0.64535184  0.52898771     0.22500
C820        C  0.63750964  0.57256100  0.51915329    -0.52300
C821        C  0.64360438  0.61003595  0.54713496     0.11700
C822        C  0.65499011  0.62141832  0.96579026    -0.51800
C823        C  0.65807630  0.66079261  0.99233854     0.12200
H824        H  0.70941933  0.54787187  0.00864012     0.16800
H825        H  0.67560429  0.67564514  0.55145981     0.02500
H826        H  0.61869273  0.54594880  0.52567193     0.17100
H827        H  0.65159930  0.62419118  0.93021732     0.16900
O828        O  0.89294117  0.73338588  0.64083792    -0.76300
C829        C  0.96178584  0.63096996  0.60000442     0.84700
O830        O  0.86751041  0.69426405  0.99179792    -0.77400
O831        O  0.89313140  0.53214833  0.54033324    -0.78900
O832        O  0.83736732  0.58729293  0.67604688    -0.78700
O833        O  0.84851395  0.70716227  0.67575964    -0.77400
Zn834      Zn  0.90123214  0.69246925  0.58778212     1.55700
O835        O  0.87761998  0.54066488  0.65018145    -0.78700
Cd836      Cd  0.83796786  0.64783848  0.63562992     1.59700
Cd837      Cd  0.84971384  0.63584045  0.52794327     1.59600
O838        O  0.79123699  0.65378110  0.60957666    -0.78700
O839        O  0.87155331  0.63857171  0.58686023    -1.89200
Cd840      Cd  0.89667820  0.57716200  0.59558947     1.59900
O841        O  0.80003947  0.63635608  0.53835910    -0.78700
O842        O  0.94602410  0.59164132  0.60471588    -0.77400
C843        C  0.88451287  0.73084745  0.00132326     0.85200
C844        C  0.87221974  0.73651866  0.67215719     0.84800
O845        O  0.94775460  0.67092905  0.59167432    -0.76300
C846        C  0.85435560  0.54881679  0.67749418     0.85700
O847        O  0.89578997  0.73489174  0.53391765    -0.76400
C848        C  0.78079877  0.64506415  0.57080445     0.85800
C849        C  0.88784194  0.53498946  0.00948012     0.86100
O850        O  0.87387183  0.57322162  0.99578579    -0.78800
C851        C  0.95443212  0.88046526  0.87845313     0.88600
C852        C  0.94343099  0.83596165  0.90480966    -0.51600
C853        C  0.91108900  0.83608464  0.91477261     0.11600
C854        C  0.89254607  0.88052544  0.89734737     0.22500
C855        C  0.93288301  0.88201179  0.83754648    -0.52300
C856        C  0.90033893  0.88195342  0.84733416     0.11700
C857        C  0.94356918  0.92364784  0.90628436    -0.51800
C858        C  0.91124428  0.92375620  0.91619741     0.12200
H859        H  0.95986937  0.80759083  0.91572329     0.16800
H860        H  0.86619592  0.88074511  0.90558472     0.02500
H861        H  0.94240799  0.88437222  0.80391091     0.17100
H862        H  0.96004295  0.95141889  0.91760192     0.16900
C863        C  0.85430769  0.92674826  0.74611332     0.88600
C864        C  0.82094231  0.92429394  0.76876313    -0.51600
C865        C  0.81732188  0.88601007  0.79755359     0.11600
C866        C  0.84806089  0.85422640  0.80144579     0.22500
C867        C  0.87877223  0.92743804  0.78354447    -0.52300
C868        C  0.87583991  0.88963025  0.81254850     0.11700
C869        C  0.85866609  0.87735044  0.72477399    -0.51800
C870        C  0.85541300  0.83905851  0.75321466     0.12200
H871        H  0.80149742  0.94957645  0.76132412     0.16800
H872        H  0.84554036  0.82324805  0.82481001     0.02500
H873        H  0.89760044  0.95462720  0.78608479     0.17100
H874        H  0.86258534  0.87304114  0.68938878     0.14900
O875        O  0.45283119  0.64911264  0.60301731    -0.76300
C876        C  0.37567334  0.71890799  0.52993385     0.84700
O877        O  0.36261536  0.68237056  0.70215972    -0.77400
O878        O  0.29694896  0.62430124  0.58058223    -0.78900
O879        O  0.38572604  0.51429803  0.55282112    -0.78700
O880        O  0.45130504  0.56899321  0.59897491    -0.77400
Zn881      Zn  0.40689644  0.67063577  0.60817012     1.55700
O882        O  0.35051499  0.56164172  0.51693659    -0.78700
Cd883      Cd  0.40153805  0.55609488  0.60582128     1.59700
Cd884      Cd  0.35061927  0.62129190  0.66639892     1.59600
O885        O  0.39664556  0.51975888  0.66580172    -0.78700
O886        O  0.37616364  0.61763104  0.60952522    -1.89200
Cd887      Cd  0.34534553  0.62167781  0.55852811     1.59900
O888        O  0.36255986  0.56379939  0.70741169    -0.78700
O889        O  0.35421272  0.68622383  0.52490040    -0.77400
C890        C  0.38570576  0.71220089  0.69623639     0.85200
C891        C  0.46697518  0.60855204  0.60004472     0.84800
O892        O  0.39760670  0.71570164  0.55893537    -0.76300
C893        C  0.36636029  0.52204859  0.52062730     0.85700
O894        O  0.40445133  0.71048393  0.66273368    -0.76400
C895        C  0.38158981  0.52793005  0.70211826     0.85800
C896        C  0.28392405  0.62499381  0.61912570     0.86100
O897        O  0.30100979  0.62313851  0.65419724    -0.78800
C898        C  0.40472001  0.82075805  0.78358700     0.88600
C899        C  0.38621675  0.81704036  0.82727908    -0.51600
C900        C  0.39200958  0.85411858  0.85575037     0.11600
C901        C  0.41630106  0.89184633  0.83728999     0.22500
C902        C  0.39569555  0.87008225  0.76458479    -0.52300
C903        C  0.40171838  0.90725466  0.79253854     0.11700
C904        C  0.44050055  0.82477023  0.79617523    -0.51800
C905        C  0.44677944  0.86203919  0.82415077     0.12200
H906        H  0.36965433  0.78760546  0.83496723     0.16800
H907        H  0.42124866  0.92222641  0.86002357     0.02500
H908        H  0.38588924  0.87531440  0.73159595     0.17100
H909        H  0.45931498  0.80092632  0.78335605     0.16900
C910        C  0.34961778  0.81370011  0.96189879     0.88600
C911        C  0.31786821  0.83062049  0.94139564    -0.51600
C912        C  0.32006224  0.87344243  0.91876802     0.11600
C913        C  0.35434221  0.89547381  0.91844245     0.22500
C914        C  0.37376295  0.81217446  0.92345369    -0.52300
C915        C  0.37630400  0.85444591  0.90011234     0.11700
C916        C  0.36060823  0.85589944  0.99054675    -0.51800
C917        C  0.36269848  0.89890816  0.96829389     0.12200
H918        H  0.29530663  0.81064945  0.94480757     0.16800
H919        H  0.35614719  0.93017484  0.89989666     0.02500
H920        H  0.38634717  0.77928932  0.91377047     0.17100
H921        H  0.35241045  0.86804651  0.52191599     0.16900
O922        O  0.12302209  0.99261542  0.82868244    -0.76300
C923        C  0.05335591  0.88519470  0.86719075     0.84700
O924        O  0.14738948  0.94813797  0.98201713    -0.77400
O925        O  0.12150099  0.78493124  0.92449120    -0.78900
O926        O  0.18044498  0.84683469  0.79504606    -0.78700
O927        O  0.16973675  0.96869500  0.79815470    -0.77400
Zn928      Zn  0.11265839  0.94879218  0.88021785     1.55700
O929        O  0.13875192  0.80042132  0.81655614    -0.78700
Cd930      Cd  0.17854359  0.90604539  0.83728065     1.59700
Cd931      Cd  0.16005851  0.88949385  0.94393336     1.59600
O932        O  0.22358927  0.90951529  0.86963104    -0.78700
O933        O  0.14254876  0.89500278  0.88261747    -1.89200
Cd934      Cd  0.11894125  0.83344565  0.87139819     1.59900
O935        O  0.20923040  0.89219114  0.93964444    -0.78700
O936        O  0.06993889  0.84668138  0.86238903    -0.77400
C937        C  0.13054693  0.98504085  0.97193953     0.85200
C938        C  0.14562196  0.99790316  0.80000270     0.84800
O939        O  0.06640325  0.92581174  0.87500838    -0.76300
C940        C  0.16296671  0.80914949  0.79107915     0.85700
O941        O  0.11643144  0.98940172  0.93486082    -0.76400
C942        C  0.23065213  0.90121949  0.91018239     0.85800
C943        C  0.13243472  0.78809379  0.96366994     0.86100
O944        O  0.14704139  0.82571411  0.97693594    -0.78800
C945        C  0.06079464  0.63746210  0.58984813     0.88600
C946        C  0.07316178  0.59426695  0.56358627    -0.51600
C947        C  0.10497344  0.59751491  0.55152032     0.11600
C948        C  0.12195628  0.64378326  0.56706883     0.22500
C949        C  0.08362478  0.64122679  0.62939170    -0.52300
C950        C  0.11590277  0.64424219  0.61778436     0.11700
C951        C  0.06853370  0.68156059  0.56071110    -0.51800
C952        C  0.10038527  0.68502033  0.54845407     0.12200
H953        H  0.05781540  0.56428462  0.55411147     0.16800
H954        H  0.14790805  0.64645527  0.55702150     0.02500
H955        H  0.07504591  0.64257242  0.66350336     0.17100
H956        H  0.05017561  0.70702908  0.54951958     0.16900
C957        C  0.16056518  0.69438038  0.71735430     0.88600
C958        C  0.19445054  0.69268484  0.69589853    -0.51600
C959        C  0.19974616  0.65383078  0.66913899     0.11600
C960        C  0.16973384  0.62050281  0.66519237     0.22500
C961        C  0.13683908  0.69259505  0.67916790    -0.52300
C962        C  0.14102819  0.65427062  0.65167516     0.11700
C963        C  0.15722368  0.64523662  0.74065188    -0.51800
C964        C  0.16201812  0.60612511  0.71384778     0.12200
H965        H  0.21419695  0.71610388  0.70534191     0.16800
H966        H  0.17351335  0.58917594  0.64297339     0.02500
H967        H  0.11717883  0.71851633  0.67529304     0.17100
H968        H  0.15271989  0.64204722  0.77606026     0.16900
C969        C  0.17160568  0.77383007  0.75644515    -0.14300
C970        C  0.15279076  0.73511688  0.74894316    -0.29400
H971        H  0.19379273  0.77984398  0.73772666     0.14800
H972        H  0.12986765  0.73178300  0.76684915     0.15300
C973        C  0.14355980  0.54333092  0.76677511    -0.14300
C974        C  0.16267033  0.55560678  0.73197987    -0.29400
H975        H  0.12556858  0.06807403  0.78146717     0.14800
H976        H  0.17953843  0.52957887  0.71792475     0.15300
C977        C  0.12705358  0.74827785  0.99420086    -0.11100
C978        C  0.11100693  0.72211753  0.51724355    -0.12700
C979        C  0.11914896  0.56182655  0.52296653    -0.11100
C980        C  0.12728894  0.52147776  0.99675875    -0.12700
C981        C  0.29076829  0.89604067  0.89955118    -0.14300
C982        C  0.26430784  0.89894916  0.92558089    -0.29400
H983        H  0.28975924  0.90343396  0.86423991     0.14800
H984        H  0.26711705  0.89197614  0.96088888     0.15300
C985        C  0.24800339  0.63011623  0.62319302    -0.14300
C986        C  0.23382178  0.63758897  0.66283429    -0.29400
H987        H  0.23352962  0.63201555  0.59336444     0.14800
H988        H  0.24886954  0.63824581  0.69216962     0.15300
C989        C  0.37480180  0.76331584  0.50326837    -0.14300
C990        C  0.34630095  0.76622044  0.98628476    -0.29400
H991        H  0.39591176  0.78675859  0.50311393     0.14800
H992        H  0.32263274  0.74927411  0.98965440     0.15300
C993        C  0.37014507  0.94368593  0.99271953    -0.14300
C994        C  0.36539607  0.96665322  0.52131454    -0.29400
H995        H  0.33548972  0.99097042  0.46925146     0.14800
H996        H  0.34347090  0.48999713  0.46127914     0.15300
C997        C  0.39214040  0.99169111  0.75579708    -0.11100
C998        C  0.39649185  0.95610732  0.77805492    -0.12700
C999        C  0.39127739  0.74907510  0.72821206    -0.11100
C1000       C  0.39756728  0.78100195  0.75353340    -0.12700
C1001       C  0.01861381  0.88247119  0.86563662    -0.11100
C1002       C  0.98943731  0.88089171  0.86887595    -0.12700
C1003       C  0.85875375  0.96677002  0.71250408    -0.14300
C1004       C  0.84607274  0.51228131  0.71157440    -0.29400
H1005       H  0.86642693  0.95674061  0.67924729     0.14800
H1006       H  0.82485546  0.51860583  0.73225463     0.15300
C1007       C  0.85594967  0.78872370  0.73632090    -0.14300
C1008       C  0.87590165  0.77772451  0.70227079    -0.29400
H1009       H  0.83797793  0.76309893  0.74840670     0.14800
H1010       H  0.89478053  0.80335132  0.69294901     0.15300
C1011       C  0.89711000  0.96087525  0.94363573    -0.11100
C1012       C  0.89336653  0.49584878  0.97886746    -0.12700
C1013       C  0.88933674  0.76806818  0.96872967    -0.11100
C1014       C  0.89699748  0.79941606  0.94285743    -0.12700
C1015       C  0.02593186  0.63344885  0.60061942    -0.11100
C1016       C  0.99667028  0.63072111  0.60290234    -0.12700
C1017       C  0.74526573  0.64338810  0.56312463    -0.14300
C1018       C  0.73405823  0.62140046  0.52689811    -0.29400
H1019       H  0.72853475  0.65691323  0.58816929     0.14800
H1020       H  0.75148689  0.60542531  0.50397055     0.15300
C1021       C  0.53067585  0.61199692  0.60532630    -0.11100
C1022       C  0.50178957  0.60820486  0.60036041    -0.12700
C1023       C  0.75867669  0.87606989  0.79187927    -0.14300
C1024       C  0.78520869  0.87282012  0.81726733    -0.29400
H1025       H  0.76191640  0.88625566  0.75726519     0.14800
H1026       H  0.78360402  0.85934050  0.85104929     0.15300
C1027       C  0.66755391  0.49226758  0.95138923    -0.14300
C1028       C  0.64981424  0.53232497  0.95814893    -0.29400
H1029       H  0.68922883  0.48526253  0.97046090     0.14800
H1030       H  0.62739175  0.53685432  0.93985035     0.15300
C1031       C  0.63722709  0.72078392  0.93932433    -0.14300
C1032       C  0.65705222  0.71075836  0.97347355    -0.29400
H1033       H  0.61948389  0.69384849  0.92995872     0.14800
H1034       H  0.67349897  0.73790106  0.98589213     0.15300
C1035       C  0.62442057  0.54245980  0.68281073    -0.11100
C1036       C  0.63064030  0.51079100  0.70924798    -0.12700
C1037       C  0.62233843  0.73478768  0.70679823    -0.11100
C1038       C  0.61735895  0.70289543  0.68046533    -0.12700
C1039       C  0.50892488  0.87655976  0.84157837    -0.11100
C1040       C  0.47985852  0.87290448  0.83675318    -0.12700
loop_ 
_geom_bond_atom_site_label_1 
_geom_bond_atom_site_label_2 
_geom_bond_distance 
_geom_bond_site_symmetry_2 
_ccdc_geom_bond_type 
O1           C17   1.276       .  A
O1           Zn7   2.030       .  S
C2           O18   1.277       .  A
C2           O15   1.274       .  A
C2          C259   1.445       .  S
O3           C16   1.272       .  A
O3          Cd10   2.070       .  S
O4           C22   1.273       .  A
O4          Cd13   2.081       .  S
O5           C19   1.278       .  A
O5           Cd9   2.093       .  S
O6           C17   1.281       .  A
O6           Cd9   2.117       .  S
Zn7          O18   2.043       .  S
Zn7          O20   2.032       .  S
Zn7          O12   1.945       .  S
O8           C19   1.275       .  A
O8          Cd13   2.057       .  S
Cd9          O11   2.119       .  S
Cd9          O12   2.033       .  S
Cd10         O14   2.041       .  S
Cd10         O23   2.077       .  S
Cd10         O12   2.002       .  S
O11          C21   1.281       .  A
O12         Cd13   2.004       .  S
Cd13         O15   2.083       .  S
O14          C21   1.271       .  A
C16          O20   1.274       .  A
C16         C257   1.439       .  S
C17         C251   1.488       .  S
C19         C767   1.478       .  S
C21         C243   1.477       .  S
C22          O23   1.272       .  A
C22         C776   1.442       .  S
C24          C25   1.529       .  S
C24          C30   1.531       .  S
C24          C28   1.521       .  S
C24         C241   1.463       .  S
C25          H32   1.087       .  S
C25          C26   1.364       .  D
C26          C27   1.545       .  S
C26         C258   1.444       .  S
C27          C31   1.547       .  S
C27          C29   1.548       .  S
C27          H33   1.111       .  S
C28          H34   1.087       .  S
C28          C29   1.365       .  D
C29          C41   1.478       .  S
C30          H35   1.087       .  S
C30          C31   1.363       .  D
C31         C255   1.449       .  S
C36          C37   1.523       .  S
C36          C42   1.540       .  S
C36         C248   1.512       .  S
C36         C300   1.525       .  S
C37          H44   1.087       .  S
C37         C298   1.361       .  D
C38          C39   1.543       .  S
C38         C297   1.377       .  D
C38         C238   1.493       .  S
C39          C41   1.546       .  S
C39         C303   1.549   1_554  S
C39          H45   1.111       .  S
C40         C296   1.524   1_554  S
C40          H46   1.087       .  S
C40          C41   1.367       .  D
C42          H47   1.086       .  S
C42          C43   1.373       .  D
C43         C299   1.549       .  S
C43         C252   1.498       .  S
O48          C64   1.269       .  A
O48         Zn54   1.971       .  S
C49          O65   1.268       .  A
C49          O62   1.268       .  A
C49         C236   1.420       .  S
O50          C63   1.273       .  A
O50        Cd317   2.080       .  S
O51         C329   1.270   1_554  A
O51         Cd60   2.065       .  S
O52          C66   1.285       .  A
O52         Cd56   2.132       .  S
O53          C64   1.287       .  A
O53         Cd56   2.175       .  S
Zn54         O65   1.989       .  S
Zn54         O67   1.994       .  S
Zn54         O59   1.919       .  S
O55          C66   1.268       .  A
O55         Cd60   2.022       .  S
Cd56         O58   2.149       .  S
Cd56         O59   2.042       .  S
Cd57         O61   2.016       .  S
Cd57        O310   2.069   1_554  S
Cd57        O330   2.078   1_554  S
Cd57         O59   1.994       .  S
O58          C68   1.287       .  A
O59         Cd60   1.989       .  S
Cd60         O62   2.046       .  S
O61          C68   1.269       .  A
C63         O327   1.272       .  A
C63         C233   1.438       .  S
C64         C228   1.493       .  S
C66         C224   1.474   1_545  S
O67         C323   1.269   1_554  A
C68         C237   1.476       .  S
C69          O70   1.276       .  A
C69         O311   1.275       .  A
C69         C232   1.452   1_545  S
O70        Cd317   2.101       .  S
C71          C72   1.529       .  S
C71          C77   1.532       .  S
C71          C75   1.531       .  S
C71         C222   1.478       .  S
C72          H79   1.087       .  S
C72          C73   1.363       .  D
C73          C74   1.544       .  S
C73         C234   1.443       .  S
C74          C78   1.554       .  S
C74          C76   1.552       .  S
C74          H80   1.111       .  S
C75          H81   1.086       .  S
C75          C76   1.372       .  D
C76          C88   1.492       .  S
C77          H82   1.087       .  S
C77          C78   1.364       .  D
C78         C231   1.459       .  S
C83          C84   1.532       .  S
C83          C89   1.534       .  S
C83          C87   1.523       .  S
C83         C223   1.520       .  S
C84          H91   1.086       .  S
C84          C85   1.374       .  D
C85          C86   1.544       .  S
C85         C244   1.490       .  S
C86          C90   1.554       .  S
C86          C88   1.560       .  S
C86          H92   1.111       .  S
C87          H93   1.087       .  S
C87          C88   1.365       .  D
C89          H94   1.086       .  S
C89          C90   1.371       .  D
C90         C227   1.509       .  S
O95         C111   1.270       .  A
O95        Zn101   2.005       .  S
C96         O112   1.274       .  A
C96         O109   1.277       .  A
C96         C209   1.479   1_554  S
O97         C110   1.267       .  A
O97        Cd104   2.041       .  S
O98         C116   1.282       .  A
O98        Cd107   2.124       .  S
O99         C113   1.277       .  A
O99        Cd103   2.074       .  S
O100        C111   1.271       .  A
O100       Cd103   2.060       .  S
Zn101       O112   1.994       .  S
Zn101       O114   2.019       .  S
Zn101       O106   1.941       .  S
O102        C113   1.281       .  A
O102       Cd107   2.112       .  S
Cd103       O105   2.070       .  S
Cd103       O106   1.992       .  S
Cd104       O108   2.044       .  S
Cd104       O117   2.033       .  S
Cd104       O106   1.987       .  S
O105        C115   1.274       .  A
O106       Cd107   2.017       .  S
Cd107       O109   2.093       .  S
O108        C115   1.268       .  A
C110        O114   1.271       .  A
C110        C219   1.428       .  S
C111        C242   1.428       .  S
C113        C734   1.490   1_544  S
C115        C737   1.426   1_545  S
C116        O117   1.270       .  A
C116        C205   1.475       .  S
C118        C119   1.525       .  S
C118        C124   1.525       .  S
C118        C122   1.521       .  S
C118        C220   1.461       .  S
C119        H126   1.087       .  S
C119        C120   1.370       .  D
C120        C121   1.545       .  S
C120        C135   1.482       .  S
C121        C125   1.553       .  S
C121        C123   1.542       .  S
C121        H127   1.111       .  S
C122        H128   1.088       .  S
C122        C123   1.360       .  D
C123        C218   1.435       .  S
C124        H129   1.087       .  S
C124        C125   1.363       .  D
C125        C260   1.449       .  S
C130        C131   1.523       .  S
C130        C136   1.532       .  S
C130        C134   1.524       .  S
C130        C210   1.512       .  S
C131        H138   1.087       .  S
C131        C132   1.369       .  D
C132        C133   1.546       .  S
C132        C201   1.486       .  S
C133        C137   1.554       .  S
C133        C135   1.552       .  S
C133        H139   1.110       .  S
C134        H140   1.087       .  S
C134        C135   1.365       .  D
C136        H401   1.087       .  S
C136        C137   1.366       .  D
C137        C213   1.490       .  S
H141        C396   1.086   1_554  S
O142        C158   1.273       .  A
O142       Zn148   1.997       .  S
C143        O159   1.274       .  A
C143        O156   1.275       .  A
C143        C221   1.445       .  S
O144        C157   1.271       .  A
O144       Cd151   2.058       .  S
O145        C163   1.275       .  A
O145       Cd154   2.084       .  S
O146        C160   1.275       .  A
O146       Cd150   2.077       .  S
O147        C158   1.279       .  A
O147       Cd150   2.110       .  S
Zn148       O159   2.030       .  S
Zn148       O161   2.021       .  S
Zn148       O153   1.926       .  S
O149        C160   1.278       .  A
O149       Cd154   2.062       .  S
Cd150       O152   2.117       .  S
Cd150       O153   2.031       .  S
Cd151       O155   2.037       .  S
Cd151       O164   2.080       .  S
Cd151       O153   1.989       .  S
O152        C162   1.281       .  A
O153       Cd154   1.994       .  S
Cd154       O156   2.088       .  S
O155        C162   1.271       .  A
C157        O161   1.273       .  A
C157        C720   1.431       .  S
C158        C713   1.476       .  S
C160        C189   1.475       .  S
C162        C202   1.474       .  S
C163        O164   1.274       .  A
C163        C197   1.443       .  S
C165        C166   1.525       .  S
C165        C171   1.529       .  S
C165        C169   1.520       .  S
C165        C235   1.453       .  S
C166        H173   1.087       .  S
C166        C167   1.360       .  D
C167        C168   1.540       .  S
C167        C199   1.434       .  S
C168        C172   1.547       .  S
C168        C170   1.545       .  S
C168        H174   1.111       .  S
C169        H175   1.087       .  S
C169        C170   1.362       .  D
C170        C182   1.468       .  S
C171        H176   1.087       .  S
C171        C172   1.363       .  D
C172        C198   1.446       .  S
C177        C178   1.540       .  S
C177        C183   1.526       .  S
C177        C181   1.525       .  S
C177        C190   1.509       .  S
C178        H185   1.083       .  S
C178        C179   1.375       .  D
C179        C180   1.541       .  S
C179        C206   1.489       .  S
C180        C184   1.551       .  S
C180        C182   1.542       .  S
C180        H186   1.111       .  S
C181        H187   1.087       .  S
C181        C182   1.363       .  D
C183        H188   1.088       .  S
C183        C184   1.357       .  D
C184        C194   1.483       .  S
C189        H191   1.083       .  S
C189        C190   1.342       .  D
C190        H192   1.088       .  S
C193        C678   1.488   1_545  S
C193        H715   1.087       .  S
C193        C194   1.340       .  D
C194        H196   1.087       .  S
H195        C713   1.088       .  S
C197        C458   1.210       .  T
C198        C457   1.209   1_554  T
C199        C460   1.202       .  T
C200        C677   1.431   1_545  S
C200        C459   1.203       .  T
C201        H203   1.086       .  S
C201        C202   1.343       .  D
C202        H204   1.089       .  S
C205        H207   1.087       .  S
C205        C206   1.341       .  D
C206        H208   1.085       .  S
C209        H211   1.082       .  S
C209        C470   1.348       .  D
C210        H212   1.087       .  S
C210        C469   1.336       .  D
C213        H475   1.087       .  S
C213        C474   1.346       .  D
C214        C633   1.468       .  S
C214        H736   1.087       .  S
C214        C473   1.342   1_554  D
H215        C473   1.086       .  S
H216        C734   1.087       .  S
C217        C635   1.430       .  S
C217        C218   1.203       .  T
C219        C220   1.202       .  T
C221        C222   1.212   1_455  T
C223        H225   1.088       .  S
C223        C744   1.349       .  D
C224        H226   1.088       .  S
C224        C743   1.336       .  D
C227        H229   1.085       .  S
C227        C228   1.350       .  D
C228        H230   1.087       .  S
C231        C752   1.217       .  T
C232        C751   1.215       .  T
C233        C234   1.207       .  T
C235        C236   1.197   1_455  T
C237        H239   1.088       .  S
C237        C238   1.340       .  D
C238        H240   1.086       .  S
C241        C242   1.203       .  T
C243        H245   1.087       .  S
C243        C244   1.344       .  D
C244        H246   1.085       .  S
C247        C539   1.473   1_545  S
C247        H249   1.088       .  S
C247        C248   1.340       .  D
C248        H250   1.087   1_545  S
C251        H253   1.086       .  S
C251        C252   1.349       .  D
C252        H254   1.085       .  S
C255        C256   1.211       .  T
C256        C542   1.445   1_545  S
C257        C258   1.208       .  T
C259        C260   1.211       .  T
O261        C277   1.276       .  A
O261       Zn267   2.019       .  S
C262        O278   1.277       .  A
C262        O275   1.276       .  A
C262        C519   1.449       .  S
O263        C276   1.272       .  A
O263       Cd270   2.069       .  S
O264        C282   1.275       .  A
O264       Cd273   2.086       .  S
O265        C279   1.274       .  A
O265       Cd269   2.077       .  S
O266        C277   1.280       .  A
O266       Cd269   2.110       .  S
Zn267       O278   2.043       .  S
Zn267       O280   2.042       .  S
Zn267       O272   1.939       .  S
O268        C279   1.279       .  A
O268       Cd273   2.078       .  S
Cd269       O271   2.106       .  S
Cd269       O272   2.029       .  S
Cd270       O274   2.043       .  S
Cd270       O283   2.078       .  S
Cd270       O272   1.998       .  S
O271        C281   1.279       .  A
O272       Cd273   2.005       .  S
Cd273       O275   2.094       .  S
O274        C281   1.271       .  A
C276        O280   1.275       .  A
C276        C517   1.441       .  S
C277        C511   1.481       .  S
C279       C1027   1.482       .  S
C281        C503   1.474       .  S
C282        O283   1.274       .  A
C282       C1036   1.442       .  S
C284        C285   1.527       .  S
C284        C290   1.526       .  S
C284        C288   1.521       .  S
C284        C501   1.458       .  S
C285        H292   1.087       .  S
C285        C286   1.363       .  D
C286        C287   1.549       .  S
C286        C518   1.446       .  S
C287        C291   1.547       .  S
C287        C289   1.553       .  S
C287        H293   1.111       .  S
C288        H294   1.087       .  S
C288        C289   1.367       .  D
C289        C301   1.482       .  S
C290        H295   1.087       .  S
C290        C291   1.359       .  D
C291        C515   1.445       .  S
C296        C297   1.533   1_556  S
C296        C302   1.529       .  S
C296        C508   1.517       .  S
C297        H304   1.086       .  S
C298        C299   1.543       .  S
C298        C498   1.468       .  S
C299        C301   1.550       .  S
C299        H305   1.111       .  S
C300        H306   1.087       .  S
C300        C301   1.366       .  D
C302        H307   1.087       .  S
C302        C303   1.365       .  D
C303        C512   1.493       .  S
O308        C324   1.271       .  A
O308       Zn314   1.999       .  S
C309        O325   1.270       .  A
C309        O322   1.274       .  A
C309        C496   1.429       .  S
O310        C323   1.271       .  A
O311       Cd320   2.088       .  S
O312        C326   1.274       .  A
O312       Cd316   2.078       .  S
O313        C324   1.277       .  A
O313       Cd316   2.101       .  S
Zn314       O325   1.997       .  S
Zn314       O327   2.015       .  S
Zn314       O319   1.931       .  S
O315        C326   1.277       .  A
O315       Cd320   2.064       .  S
Cd316       O318   2.093       .  S
Cd316       O319   2.029       .  S
Cd317       O321   2.050       .  S
Cd317       O319   2.001       .  S
O318        C328   1.277       .  A
O319       Cd320   2.000       .  S
Cd320       O322   2.075       .  S
O321        C328   1.276       .  A
C323        C493   1.430       .  S
C324        C488   1.476       .  S
C326        C484   1.475       .  S
C328        C497   1.481       .  S
C329        O330   1.272       .  A
C329        C492   1.437   1_545  S
C331        C332   1.530       .  S
C331        C337   1.531       .  S
C331        C335   1.524       .  S
C331        C482   1.467       .  S
C332        H339   1.087       .  S
C332        C333   1.365       .  D
C333        C334   1.537       .  S
C333        C494   1.436       .  S
C334        C338   1.549       .  S
C334        C336   1.542       .  S
C334        H340   1.111       .  S
C335        H341   1.087       .  S
C335        C336   1.366       .  D
C336        C348   1.475       .  S
C337        H342   1.087       .  S
C337        C338   1.363       .  D
C338        C491   1.451       .  S
C343        C344   1.539       .  S
C343        C349   1.527       .  S
C343        C347   1.519       .  S
C343        C483   1.510       .  S
C344        H351   1.084       .  S
C344        C345   1.373       .  D
C345        C346   1.539       .  S
C345        C504   1.485       .  S
C346        C350   1.546       .  S
C346        C348   1.549       .  S
C346        H352   1.111       .  S
C347        H353   1.087       .  S
C347        C348   1.360       .  D
C349        H354   1.086       .  S
C349        C350   1.368       .  D
C350        C487   1.490       .  S
O355        C371   1.265       .  A
O355       Zn361   1.976       .  S
C356        O372   1.265       .  A
C356        O369   1.281       .  A
C356        C469   1.467       .  S
O357        C370   1.269       .  A
O357       Cd364   2.049       .  S
O358        C376   1.283       .  A
O358       Cd367   2.128       .  S
O359        C373   1.272       .  A
O359       Cd363   2.034       .  S
O360        C371   1.270       .  A
O360       Cd363   2.065       .  S
Zn361       O372   1.949       .  S
Zn361       O374   1.973       .  S
Zn361       O366   1.925       .  S
O362        C373   1.284       .  A
O362       Cd367   2.130       .  S
Cd363       O365   2.060       .  S
Cd363       O366   1.981       .  S
Cd364       O368   2.065       .  S
Cd364       O377   2.038       .  S
Cd364       O366   1.992       .  S
O365        C375   1.271       .  A
O366       Cd367   2.032       .  S
Cd367       O369   2.117       .  S
O368        C375   1.271       .  A
C370        O374   1.265       .  A
C370        C479   1.416       .  S
C371        C502   1.424       .  S
C373        C994   1.476   1_545  S
C375        C997   1.430   1_545  S
C376        O377   1.271       .  A
C376        C465   1.476       .  S
C378        C379   1.515       .  S
C378        C384   1.524       .  S
C378        C382   1.519       .  S
C378        C480   1.449       .  S
C379        H386   1.088       .  S
C379        C380   1.363       .  D
C380        C381   1.550       .  S
C380        C395   1.477       .  S
C381        C385   1.556       .  S
C381        C383   1.550       .  S
C381        H387   1.111       .  S
C382        H388   1.088       .  S
C382        C383   1.359       .  D
C383        C478   1.438       .  S
C384        H389   1.087       .  S
C384        C385   1.363       .  D
C385        C520   1.452       .  S
C390        C391   1.537       .  S
C390        C396   1.522       .  S
C390        C394   1.521       .  S
C390        C470   1.514       .  S
C391        H398   1.083       .  S
C391        C392   1.371       .  D
C392        C393   1.539       .  S
C392        C461   1.484       .  S
C393        C397   1.543       .  S
C393        C395   1.545       .  S
C393        H399   1.111       .  S
C394        H400   1.087       .  S
C394        C395   1.367       .  D
C396        C397   1.370       .  D
C397        C473   1.487       .  S
O402        C418   1.273       .  A
O402       Zn408   2.003       .  S
C403        O419   1.273       .  A
C403        O416   1.273       .  A
C403        C481   1.433       .  S
O404        C417   1.271       .  A
O404       Cd411   2.071       .  S
O405        C423   1.273       .  A
O405       Cd414   2.080       .  S
O406        C420   1.278       .  A
O406       Cd410   2.099       .  S
O407        C418   1.282       .  A
O407       Cd410   2.131       .  S
Zn408       O419   2.016       .  S
Zn408       O421   2.019       .  S
Zn408       O413   1.932       .  S
O409        C420   1.277       .  A
O409       Cd414   2.067       .  S
Cd410       O412   2.115       .  S
Cd410       O413   2.030       .  S
Cd411       O415   2.031       .  S
Cd411       O424   2.076       .  S
Cd411       O413   1.997       .  S
O412        C422   1.281       .  A
O413       Cd414   2.002       .  S
Cd414       O416   2.071       .  S
O415        C422   1.271       .  A
C417        O421   1.272       .  A
C417        C980   1.437       .  S
C418        C973   1.484       .  S
C420        C449   1.485       .  S
C422        C462   1.471       .  S
C423        O424   1.273       .  A
C423        C457   1.441       .  S
C425        C426   1.522       .  S
C425        C431   1.534       .  S
C425        C429   1.525       .  S
C425        C495   1.463       .  S
C426        H433   1.087       .  S
C426        C427   1.359       .  D
C427        C428   1.543       .  S
C427        C459   1.436       .  S
C428        C432   1.544       .  S
C428        C430   1.550       .  S
C428        H434   1.111       .  S
C429        H435   1.087       .  S
C429        C430   1.368       .  D
C430        C442   1.481       .  S
C431        H436   1.087       .  S
C431        C432   1.364       .  D
C432        C458   1.448       .  S
C437        C438   1.539       .  S
C437        C443   1.531       .  S
C437        C441   1.523       .  S
C437        C450   1.519       .  S
C438        H445   1.084       .  S
C438        C439   1.375       .  D
C439        C440   1.542       .  S
C439        C466   1.490       .  S
C440        C444   1.551       .  S
C440        C442   1.548       .  S
C440        H446   1.111       .  S
C441        H447   1.087       .  S
C441        C442   1.363       .  D
C443        H448   1.086       .  S
C443        C444   1.369       .  D
C444        C454   1.500       .  S
C449        H451   1.083       .  S
C449        C450   1.348       .  D
C450        H452   1.087       .  S
C453        C938   1.485   1_545  S
C453        H975   1.087       .  S
C453        C454   1.350       .  D
C454        H456   1.086       .  S
H455        C973   1.087       .  S
C460        C937   1.430   1_544  S
C461        H463   1.085       .  S
C461        C462   1.341       .  D
C462        H464   1.089       .  S
C465        H467   1.087       .  S
C465        C466   1.343       .  D
C466        H468   1.085       .  S
C469        H471   1.088       .  S
C470        H472   1.087   1_556  S
C474        C893   1.493       .  S
C474        H996   1.086       .  S
H476        C994   1.086       .  S
C477        C895   1.434       .  S
C477        C478   1.205       .  T
C479        C480   1.195       .  T
C481        C482   1.205   1_455  T
C483        H485   1.087       .  S
C483       C1004   1.341       .  D
C484        H486   1.086       .  S
C484       C1003   1.341   1_545  D
C487        H489   1.085       .  S
C487        C488   1.346       .  D
C488        H490   1.087       .  S
C491       C1012   1.212       .  T
C492       C1011   1.207       .  T
C493        C494   1.203       .  T
C495        C496   1.203   1_455  T
C497        H499   1.087       .  S
C497        C498   1.342       .  D
C498        H500   1.087       .  S
C501        C502   1.200       .  T
C503        H505   1.088       .  S
C503        C504   1.343       .  D
C504        H506   1.085       .  S
C507        C799   1.482       .  S
C507        H509   1.086       .  S
C507        C508   1.344   1_565  D
C508        H510   1.088       .  S
C511        H513   1.088       .  S
C511        C512   1.349       .  D
C512        H514   1.085       .  S
C515        C516   1.209       .  T
C516        C802   1.441   1_545  S
C517        C518   1.209       .  T
C519        C520   1.213       .  T
O521        C537   1.274       .  A
O521       Zn527   2.009       .  S
C522        O538   1.274       .  A
C522        O535   1.272       .  A
C522        C779   1.437       .  S
O523        C536   1.270       .  A
O523       Cd530   2.061       .  S
O524        C542   1.273       .  A
O524       Cd533   2.082       .  S
O525        C539   1.282       .  A
O525       Cd529   2.106       .  S
O526        C537   1.280       .  A
O526       Cd529   2.126       .  S
Zn527       O538   2.031       .  S
Zn527       O540   2.019       .  S
Zn527       O532   1.936       .  S
O528        C539   1.272       .  A
O528       Cd533   2.047       .  S
Cd529       O531   2.106       .  S
Cd529       O532   2.035       .  S
Cd530       O534   2.032       .  S
Cd530       O543   2.086       .  S
Cd530       O532   2.000       .  S
O531        C541   1.279       .  A
O532       Cd533   2.001       .  S
Cd533       O535   2.065       .  S
O534        C541   1.270       .  A
C536        O540   1.273       .  A
C536        C777   1.432       .  S
C537        C771   1.486       .  S
C541        C763   1.468       .  S
C542        O543   1.274       .  A
C544        C545   1.524       .  S
C544        C550   1.525       .  S
C544        C548   1.521       .  S
C544        C761   1.452       .  S
C545        H552   1.087       .  S
C545        C546   1.361       .  D
C546        C547   1.544       .  S
C546        C778   1.437       .  S
C547        C551   1.549       .  S
C547        C549   1.548       .  S
C547        H553   1.111       .  S
C548        H554   1.087       .  S
C548        C549   1.367       .  D
C549        C561   1.475       .  S
C550        H555   1.087       .  S
C550        C551   1.359       .  D
C551        C775   1.445       .  S
C556        C557   1.521       .  S
C556        C562   1.534       .  S
C556        C820   1.521       .  S
C556        C768   1.511       .  S
C557        H564   1.087       .  S
C557        C818   1.365       .  D
C558        C559   1.541       .  S
C558        C817   1.379       .  D
C558        C758   1.492       .  S
C559        C823   1.549   1_554  S
C559        C561   1.544       .  S
C559        H565   1.111       .  S
C560        C816   1.520   1_554  S
C560        H566   1.087       .  S
C560        C561   1.361       .  D
C562        H567   1.086       .  S
C562        C563   1.370       .  D
C563        C819   1.551       .  S
C563        C772   1.500       .  S
O568        C584   1.276       .  A
O568       Zn574   2.025       .  S
C569        O585   1.275       .  A
C569        O582   1.275       .  A
C569        C756   1.441       .  S
O570        C583   1.275       .  A
O570       Cd837   2.086       .  S
O571        C849   1.274       .  A
O571       Cd580   2.089       .  S
O572        C586   1.281       .  A
O572       Cd576   2.113       .  S
O573        C584   1.286       .  A
O573       Cd576   2.156       .  S
Zn574       O585   2.028       .  S
Zn574       O587   2.016       .  S
Zn574       O579   1.942       .  S
O575        C586   1.278       .  A
O575       Cd580   2.071       .  S
Cd576       O578   2.142       .  S
Cd576       O579   2.040       .  S
Cd577       O830   2.063   1_554  S
Cd577       O581   2.024       .  S
Cd577       O850   2.078   1_554  S
Cd577       O579   2.001       .  S
O578        C588   1.285       .  A
O579       Cd580   2.007       .  S
Cd580       O582   2.083       .  S
O581        C588   1.269       .  A
C583        O847   1.272       .  A
C583        C753   1.438       .  S
C584        C748   1.499       .  S
C586        C744   1.485       .  S
O587        C843   1.271       .  A
C588        C757   1.477       .  S
C589        O831   1.277       .  A
C589        O590   1.278       .  A
C589        C752   1.455       .  S
O590       Cd837   2.104       .  S
C591        C592   1.531       .  S
C591        C597   1.532       .  S
C591        C595   1.529       .  S
C591        C742   1.475       .  S
C592        H599   1.087       .  S
C592        C593   1.364       .  D
C593        C594   1.542       .  S
C593        C754   1.443       .  S
C594        C598   1.551       .  S
C594        C596   1.548       .  S
C594        H600   1.111       .  S
C595        H601   1.087       .  S
C595        C596   1.369       .  D
C596        C608   1.485       .  S
C597        H602   1.087       .  S
C597        C598   1.364       .  D
C598        C751   1.457       .  S
C603        C604   1.520       .  S
C603        C609   1.542       .  S
C603        C607   1.525       .  S
C603        C743   1.515       .  S
C604        H611   1.087       .  S
C604        C605   1.365       .  D
C605        C606   1.545       .  S
C605        C764   1.483       .  S
C606        C610   1.557       .  S
C606        C608   1.556       .  S
C606        H612   1.111       .  S
C607        H613   1.087       .  S
C607        C608   1.363       .  D
C609        H614   1.085       .  S
C609        C610   1.375       .  D
C610        C747   1.511       .  S
O615        C631   1.265       .  A
O615       Zn621   1.975       .  S
C616        O632   1.264       .  A
C616        O629   1.280       .  A
C616        C729   1.463       .  S
O617        C630   1.269       .  A
O617       Cd624   2.056       .  S
O618        C636   1.279       .  A
O618       Cd627   2.108       .  S
O619        C633   1.271       .  A
O619       Cd623   2.027       .  S
O620        C631   1.267       .  A
O620       Cd623   2.050       .  S
Zn621       O632   1.947       .  S
Zn621       O634   1.972       .  S
Zn621       O626   1.920       .  S
O622        C633   1.281       .  A
O622       Cd627   2.110       .  S
Cd623       O625   2.051       .  S
Cd623       O626   1.973       .  S
Cd624       O628   2.074       .  S
Cd624       O637   2.045       .  S
Cd624       O626   1.992       .  S
O625        C635   1.271       .  A
O626       Cd627   2.022       .  S
Cd627       O629   2.109       .  S
O628        C635   1.272       .  A
C630        O634   1.266       .  A
C630        C739   1.418       .  S
C631        C762   1.419       .  S
C636        O637   1.275       .  A
C636        C725   1.482       .  S
C638        C639   1.517       .  S
C638        C644   1.530       .  S
C638        C642   1.519       .  S
C638        C740   1.451       .  S
C639        H646   1.087       .  S
C639        C640   1.366       .  D
C640        C641   1.542       .  S
C640        C655   1.471       .  S
C641        C645   1.543       .  S
C641        C643   1.542       .  S
C641        H647   1.111       .  S
C642        H648   1.087       .  S
C642        C643   1.360       .  D
C643        C738   1.429       .  S
C644        H649   1.087       .  S
C644        C645   1.362       .  D
C645        C780   1.442       .  S
C650        C651   1.525       .  S
C650        C656   1.526       .  S
C650        C654   1.519       .  S
C650        C730   1.502       .  S
C651        H658   1.087       .  S
C651        C652   1.364       .  D
C652        C653   1.536       .  S
C652        C721   1.477       .  S
C653        C657   1.550       .  S
C653        C655   1.547       .  S
C653        H659   1.111       .  S
C654        H660   1.088       .  S
C654        C655   1.365       .  D
C656        H921   1.085       .  S
C656        C657   1.374       .  D
C657        C733   1.493       .  S
H661        C916   1.087   1_554  S
O662        C678   1.281       .  A
O662       Zn668   2.063       .  S
C663        O679   1.277       .  A
C663        O676   1.275       .  A
C663        C741   1.442       .  S
O664        C677   1.270       .  A
O664       Cd671   2.044       .  S
O665        C683   1.275       .  A
O665       Cd674   2.099       .  S
O666        C680   1.273       .  A
O666       Cd670   2.058       .  S
O667        C678   1.272       .  A
O667       Cd670   2.069       .  S
Zn668       O679   2.044       .  S
Zn668       O681   2.039       .  S
Zn668       O673   1.948       .  S
O669        C680   1.277       .  A
O669       Cd674   2.064       .  S
Cd670       O672   2.087       .  S
Cd670       O673   2.011       .  S
Cd671       O675   2.026       .  S
Cd671       O684   2.080       .  S
Cd671       O673   1.991       .  S
O672        C682   1.276       .  A
O673       Cd674   1.999       .  S
Cd674       O676   2.077       .  S
O675        C682   1.268       .  A
C677        O681   1.276       .  A
C680        C709   1.464       .  S
C682        C722   1.461       .  S
C683        O684   1.272       .  A
C683        C717   1.449       .  S
C685        C686   1.528       .  S
C685        C691   1.534       .  S
C685        C689   1.524       .  S
C685        C755   1.474       .  S
C686        H693   1.087       .  S
C686        C687   1.365       .  D
C687        C688   1.544       .  S
C687        C719   1.442       .  S
C688        C692   1.548       .  S
C688        C690   1.546       .  S
C688        H694   1.111       .  S
C689        H695   1.087       .  S
C689        C690   1.369       .  D
C690        C702   1.484       .  S
C691        H696   1.087       .  S
C691        C692   1.365       .  D
C692        C718   1.453       .  S
C697        C698   1.523       .  S
C697        C703   1.523       .  S
C697        C701   1.517       .  S
C697        C710   1.502       .  S
C698        H705   1.087       .  S
C698        C699   1.365       .  D
C699        C700   1.551       .  S
C699        C726   1.479       .  S
C700        C704   1.551       .  S
C700        C702   1.557       .  S
C700        H706   1.110       .  S
C701        H707   1.087       .  S
C701        C702   1.366       .  D
C703        H708   1.087       .  S
C703        C704   1.366       .  D
C704        C714   1.490       .  S
C709        H711   1.087       .  S
C709        C710   1.338       .  D
C710        H712   1.088       .  S
C713        C714   1.347       .  D
C714        H716   1.086       .  S
C717        C978   1.214       .  T
C718        C977   1.213   1_554  T
C719        C980   1.206   1_554  T
C720        C979   1.203       .  T
C721        H723   1.085       .  S
C721        C722   1.340       .  D
C722        H724   1.088       .  S
C725        H727   1.085       .  S
C725        C726   1.344       .  D
C726        H728   1.088       .  S
C729        H731   1.088       .  S
C729        C990   1.334   1_554  D
C730        H732   1.087       .  S
C730        C989   1.335       .  D
C733        H995   1.086       .  S
C733        C994   1.344       .  D
C734        C993   1.349       .  D
H735        C993   1.086   1_554  S
C737        C738   1.199       .  T
C739        C740   1.196       .  T
C741        C742   1.210   1_455  T
C743        H745   1.087   1_565  S
C744        H746   1.086       .  S
C747        H749   1.086       .  S
C747        C748   1.354       .  D
C748        H750   1.087       .  S
C753        C754   1.207       .  T
C755        C756   1.210   1_455  T
C757        H759   1.088       .  S
C757        C758   1.340       .  D
C758        H760   1.086       .  S
C761        C762   1.197       .  T
C763        H765   1.090       .  S
C763        C764   1.343       .  D
C764        H766   1.086       .  S
C767        H769   1.086       .  S
C767        C768   1.347       .  D
C768        H770   1.087       .  S
C771        H773   1.087       .  S
C771        C772   1.351       .  D
C772        H774   1.086       .  S
C775        C776   1.209       .  T
C777        C778   1.204       .  T
C779        C780   1.207       .  T
O781        C797   1.275       .  A
O781       Zn787   2.011       .  S
C782        O798   1.275       .  A
C782        O795   1.277       .  A
C782       C1039   1.447       .  S
O783        C796   1.273       .  A
O783       Cd790   2.080       .  S
O784        C802   1.275       .  A
O784       Cd793   2.084       .  S
O785        C799   1.277       .  A
O785       Cd789   2.093       .  S
O786        C797   1.279       .  A
O786       Cd789   2.107       .  S
Zn787       O798   2.034       .  S
Zn787       O800   2.046       .  S
Zn787       O792   1.943       .  S
O788        C799   1.278       .  A
O788       Cd793   2.079       .  S
Cd789       O791   2.122       .  S
Cd789       O792   2.037       .  S
Cd790       O794   2.038       .  S
Cd790       O803   2.074       .  S
Cd790       O792   2.000       .  S
O791        C801   1.281       .  A
O792       Cd793   2.010       .  S
Cd793       O795   2.097       .  S
O794        C801   1.271       .  A
C796        O800   1.275       .  A
C796       C1037   1.447       .  S
C797       C1031   1.479       .  S
C801       C1023   1.476       .  S
C802        O803   1.273       .  A
C804        C805   1.529       .  S
C804        C810   1.527       .  S
C804        C808   1.521       .  S
C804       C1021   1.469       .  S
C805        H812   1.087       .  S
C805        C806   1.365       .  D
C806        C807   1.552       .  S
C806       C1038   1.452       .  S
C807        C811   1.548       .  S
C807        C809   1.554       .  S
C807        H813   1.111       .  S
C808        H814   1.087       .  S
C808        C809   1.370       .  D
C809        C821   1.492       .  S
C810        H815   1.087       .  S
C810        C811   1.361       .  D
C811       C1035   1.447       .  S
C816        C817   1.542   1_556  S
C816        C822   1.526       .  S
C816       C1028   1.514       .  S
C817        H824   1.084       .  S
C818        C819   1.556       .  S
C818       C1018   1.481       .  S
C819        C821   1.556       .  S
C819        H825   1.110       .  S
C820        H826   1.087       .  S
C820        C821   1.369       .  D
C822        H827   1.087       .  S
C822        C823   1.366       .  D
C823       C1032   1.493       .  S
O828        C844   1.271       .  A
O828       Zn834   1.996       .  S
C829        O845   1.271       .  A
C829        O842   1.276       .  A
C829       C1016   1.441       .  S
O830        C843   1.270   1_556  A
O831       Cd840   2.097       .  S
O832        C846   1.274       .  A
O832       Cd836   2.066       .  S
O833        C844   1.276       .  A
O833       Cd836   2.099       .  S
Zn834       O845   2.010       .  S
Zn834       O847   2.013       .  S
Zn834       O839   1.933       .  S
O835        C846   1.279       .  A
O835       Cd840   2.075       .  S
Cd836       O838   2.093       .  S
Cd836       O839   2.027       .  S
Cd837       O841   2.067       .  S
Cd837       O839   2.004       .  S
O838        C848   1.277       .  A
O839       Cd840   2.005       .  S
Cd840       O842   2.095       .  S
O841        C848   1.278       .  A
C843       C1013   1.432   1_554  S
C844       C1008   1.474       .  S
C846       C1004   1.476       .  S
C848       C1017   1.486       .  S
C849        O850   1.272   1_554  A
C849       C1012   1.446   1_554  S
C851        C852   1.529       .  S
C851        C857   1.530       .  S
C851        C855   1.529       .  S
C851       C1002   1.468       .  S
C852        H859   1.087       .  S
C852        C853   1.363       .  D
C853        C854   1.538       .  S
C853       C1014   1.438       .  S
C854        C858   1.542       .  S
C854        C856   1.541       .  S
C854        H860   1.111       .  S
C855        H861   1.087       .  S
C855        C856   1.370       .  D
C856        C868   1.478       .  S
C857        H862   1.087       .  S
C857        C858   1.362       .  D
C858       C1011   1.443       .  S
C863        C864   1.531       .  S
C863        C869   1.526       .  S
C863        C867   1.523       .  S
C863       C1003   1.507       .  S
C864        H871   1.086       .  S
C864        C865   1.373       .  D
C865        C866   1.545       .  S
C865       C1024   1.491       .  S
C866        C870   1.546       .  S
C866        C868   1.551       .  S
C866        H872   1.111       .  S
C867        H873   1.087       .  S
C867        C868   1.364       .  D
C869        H874   1.086       .  S
C869        C870   1.365       .  D
C870       C1007   1.488       .  S
O875        C891   1.267       .  A
O875       Zn881   1.987       .  S
C876        O892   1.267       .  A
C876        O889   1.279       .  A
C876        C989   1.465       .  S
O877        C890   1.272       .  A
O877       Cd884   2.078       .  S
O878        C896   1.277       .  A
O878       Cd887   2.097       .  S
O879        C893   1.280       .  A
O879       Cd883   2.093       .  S
O880        C891   1.274       .  A
O880       Cd883   2.090       .  S
Zn881       O892   1.973       .  S
Zn881       O894   1.992       .  S
Zn881       O886   1.942       .  S
O882        C893   1.279       .  A
O882       Cd887   2.101       .  S
Cd883       O885   2.073       .  S
Cd883       O886   1.999       .  S
Cd884       O888   2.070       .  S
Cd884       O897   2.081       .  S
Cd884       O886   2.008       .  S
O885        C895   1.276       .  A
O886       Cd887   2.008       .  S
Cd887       O889   2.080       .  S
O888        C895   1.273       .  A
C890        O894   1.267       .  A
C890        C999   1.432       .  S
C891       C1022   1.435       .  S
C896        O897   1.278       .  A
C896        C985   1.490       .  S
C898        C899   1.520       .  S
C898        C904   1.531       .  S
C898        C902   1.524       .  S
C898       C1000   1.465       .  S
C899        H906   1.087       .  S
C899        C900   1.368       .  D
C900        C901   1.546       .  S
C900        C915   1.482       .  S
C901        C905   1.550       .  S
C901        C903   1.541       .  S
C901        H907   1.111       .  S
C902        H908   1.087       .  S
C902        C903   1.362       .  D
C903        C998   1.435       .  S
C904        H909   1.087       .  S
C904        C905   1.366       .  D
C905       C1040   1.452       .  S
C910        C911   1.524       .  S
C910        C916   1.532       .  S
C910        C914   1.522       .  S
C910        C990   1.508       .  S
C911        H918   1.087       .  S
C911        C912   1.367       .  D
C912        C913   1.540       .  S
C912        C981   1.479       .  S
C913        C917   1.551       .  S
C913        C915   1.552       .  S
C913        H919   1.111       .  S
C914        H920   1.087       .  S
C914        C915   1.365       .  D
C916        C917   1.365       .  D
C917        C993   1.483       .  S
O922        C938   1.273       .  A
O922       Zn928   2.009       .  S
C923        O939   1.273       .  A
C923        O936   1.273       .  A
C923       C1001   1.435       .  S
O924        C937   1.270       .  A
O924       Cd931   2.060       .  S
O925        C943   1.274       .  A
O925       Cd934   2.087       .  S
O926        C940   1.277       .  A
O926       Cd930   2.086       .  S
O927        C938   1.280       .  A
O927       Cd930   2.124       .  S
Zn928       O939   2.020       .  S
Zn928       O941   2.012       .  S
Zn928       O933   1.931       .  S
O929        C940   1.276       .  A
O929       Cd934   2.058       .  S
Cd930       O932   2.109       .  S
Cd930       O933   2.030       .  S
Cd931       O935   2.030       .  S
Cd931       O944   2.090       .  S
Cd931       O933   1.999       .  S
O932        C942   1.280       .  A
O933       Cd934   1.999       .  S
Cd934       O936   2.071       .  S
O935        C942   1.271       .  A
C937        O941   1.272       .  A
C940        C969   1.478       .  S
C942        C982   1.468       .  S
C943        O944   1.274       .  A
C943        C977   1.448       .  S
C945        C946   1.524       .  S
C945        C951   1.532       .  S
C945        C949   1.532       .  S
C945       C1015   1.474       .  S
C946        H953   1.087       .  S
C946        C947   1.360       .  D
C947        C948   1.541       .  S
C947        C979   1.435       .  S
C948        C952   1.550       .  S
C948        C950   1.549       .  S
C948        H954   1.111       .  S
C949        H955   1.086       .  S
C949        C950   1.374       .  D
C950        C962   1.492       .  S
C951        H956   1.087       .  S
C951        C952   1.363       .  D
C952        C978   1.454       .  S
C957        C958   1.534       .  S
C957        C963   1.533       .  S
C957        C961   1.521       .  S
C957        C970   1.514       .  S
C958        H965   1.084       .  S
C958        C959   1.366       .  D
C959        C960   1.552       .  S
C959        C986   1.484       .  S
C960        C964   1.549       .  S
C960        C962   1.561       .  S
C960        H966   1.111       .  S
C961        H967   1.087       .  S
C961        C962   1.362       .  D
C963        H968   1.086       .  S
C963        C964   1.370       .  D
C964        C974   1.499       .  S
C969        H971   1.082       .  S
C969        C970   1.347       .  D
C970        H972   1.087       .  S
C973        C974   1.348       .  D
C974        H976   1.085       .  S
C981        H983   1.085       .  S
C981        C982   1.340       .  D
C982        H984   1.089       .  S
C985        H987   1.086       .  S
C985        C986   1.344       .  D
C986        H988   1.087       .  S
C989        H991   1.087       .  S
C990        H992   1.087       .  S
C997        C998   1.202       .  T
C999       C1000   1.204       .  T
C1001      C1002   1.206   1_455  T
C1003      H1005   1.088       .  S
C1004      H1006   1.084       .  S
C1007      H1009   1.086       .  S
C1007      C1008   1.346       .  D
C1008      H1010   1.088       .  S
C1013      C1014   1.204       .  T
C1015      C1016   1.209   1_455  T
C1017      H1019   1.086       .  S
C1017      C1018   1.343       .  D
C1018      H1020   1.088       .  S
C1021      C1022   1.206       .  T
C1023      H1025   1.087       .  S
C1023      C1024   1.344       .  D
C1024      H1026   1.085       .  S
C1027      H1029   1.084       .  S
C1027      C1028   1.342       .  D
C1028      H1030   1.088       .  S
C1031      H1033   1.087       .  S
C1031      C1032   1.349       .  D
C1032      H1034   1.086       .  S
C1035      C1036   1.210       .  T
C1037      C1038   1.213       .  T
C1039      C1040   1.213       .  T
