geometry optimzed in LAMMPS
_audit_creation_date              2020-11-30 
_audit_creation_method            'lammps2cif' 
_symmetry_space_group_name_H-M    'P1' 
_symmetry_Int_Tables_number       1 
_symmetry_cell_setting            triclinic 
loop_ 
_symmetry_equiv_pos_as_xyz 
  x,y,z 
_cell_length_a                    42.3285368173481 
_cell_length_b                    42.552216705232915 
_cell_length_c                    38.794541058085606 
_cell_angle_alpha                 88.05366030185735 
_cell_angle_beta                  89.08336781954283 
_cell_angle_gamma                 92.30675336342455 
loop_ 
_atom_site_label 
_atom_site_type_symbol 
_atom_site_fract_x 
_atom_site_fract_y 
_atom_site_fract_z 
_atom_site_charge 
O1          O  0.41499568  0.49750957  0.43750807    -0.75020
O2          O  0.41008390  0.04517404  0.46220865    -0.53930
C3          C  0.39999339  0.02236502  0.44362388     0.78710
O4          O  0.48294947  0.42322283  0.56521616    -0.59620
O5          O  0.02999427  0.41581315  0.53808237    -0.52650
C6          C  0.00632733  0.40616274  0.55779753     0.70720
O7          O  0.41510795  0.50051198  0.56645546    -0.74180
O8          O  0.40864055  0.04560132  0.53447230    -0.54740
C9          C  0.39895315  0.02417378  0.55687009     0.76730
O10         O  0.48802628  0.42600804  0.43746135    -0.59320
O11         O  0.03444117  0.41820569  0.46419685    -0.52440
C12         C  0.01193836  0.40935663  0.44428580     0.73320
Zr13       Zr  0.46585888  0.47605815  0.44917205     2.54710
O14         O  0.42499835  0.43502827  0.44179303    -0.79890
O15         O  0.47260882  0.48333818  0.38693117    -0.93300
Zr16       Zr  0.46349111  0.47510295  0.55125052     2.64680
O17         O  0.41447840  0.44404103  0.54523429    -0.98260
O18         O  0.46408743  0.47165467  0.61398687    -0.80320
O19         O  0.44398575  0.49684017  0.49954833    -0.83680
O20         O  0.48469735  0.45338860  0.50096521    -2.18390
O21         O  0.08278963  0.01767997  0.43542577    -0.67070
O22         O  0.08880708  0.47097009  0.46489211    -0.51630
C23         C  0.09877228  0.49379111  0.44415268     0.71700
O24         O  0.01127108  0.09024003  0.56142173    -0.59980
O25         O  0.46407729  0.09723569  0.53487138    -0.51950
C26         C  0.48695701  0.10620924  0.55429715     0.73510
O27         O  0.08328570  0.01735557  0.56157612    -0.71370
O28         O  0.08783580  0.46967233  0.53687661    -0.50050
C29         C  0.09869060  0.49279103  0.55462600     0.74890
O30         O  0.01290612  0.09171356  0.43452111    -0.66700
O31         O  0.46549330  0.09853086  0.46136811    -0.53900
C32         C  0.48890734  0.10798958  0.44153954     0.73270
Zr33       Zr  0.03265321  0.04034522  0.44756778     2.77540
O34         O  0.07397454  0.08177169  0.44058117    -0.97450
O35         O  0.02739959  0.03560051  0.38554475    -0.78270
Zr36       Zr  0.03186279  0.03911640  0.55019460     2.70070
O37         O  0.07331133  0.07966527  0.55661639    -0.79520
O38         O  0.02495201  0.03148381  0.61235433    -0.98600
Zr39       Zr  0.45652979  0.05170840  0.49863568     2.21500
Zr40       Zr  0.04070956  0.46338198  0.50110579     2.11130
O41         O  0.05241590  0.01864737  0.49921123    -2.47290
O42         O  0.01229320  0.06173912  0.49846992    -0.79310
O43         O  0.02129730  0.48536908  0.44812874    -0.71510
O44         O  0.47634993  0.02973254  0.55129679    -2.32460
O45         O  0.47739653  0.03095806  0.44677116    -2.28670
O46         O  0.01924029  0.48431216  0.55270657    -0.73270
H47         H  0.47927802  0.43113674  0.50122510     0.78730
H48         H  0.46699262  0.03911801  0.57115244     0.79820
H49         H  0.07486252  0.02290987  0.49860665     0.82040
H50         H  0.46852491  0.04078580  0.42652293     0.79650
H51         H  0.46358455  0.49376172  0.62108663     0.42690
H52         H  0.03536231  0.01156020  0.61793293     0.41660
H53         H  0.07922651  0.08652004  0.53264699     0.41330
H54         H  0.08954914  0.07694636  0.45858484     0.39270
H55         H  0.03735344  0.01558192  0.38041517     0.42400
H56         H  0.45613884  0.49804865  0.37999369     0.37180
H57         H  0.41168297  0.43527219  0.46298547     0.43300
H58         H  0.41867914  0.42942097  0.52659766     0.39720
H59         H  0.08488669  0.07781230  0.41847629     0.44640
H60         H  0.46537674  0.46292193  0.37768247     0.43360
H61         H  0.41174714  0.43084552  0.56659167     0.43490
H62         H  0.03897603  0.04799931  0.62208416     0.43850
C63         C  0.50274230  0.23219955  0.37902963     0.03400
C64         C  0.50405029  0.23274169  0.34301031    -0.12750
C65         C  0.50460157  0.26135233  0.32396394     0.00900
C66         C  0.50467599  0.28955857  0.34159709    -0.11270
C67         C  0.50414290  0.28918185  0.37783511     0.03390
C68         C  0.50289672  0.26038168  0.39646092    -0.10690
H69         H  0.50365867  0.21069012  0.32977255     0.08990
H70         H  0.50354806  0.31175464  0.32740997     0.06520
H71         H  0.50124388  0.25991348  0.42438613     0.06370
C72         C  0.22135069  0.01084233  0.37791312     0.03400
C73         C  0.24993409  0.01184078  0.39550506    -0.12750
C74         C  0.27881190  0.00949384  0.37768176     0.00900
C75         C  0.27838634  0.00609923  0.34163489    -0.11270
C76         C  0.25000447  0.00731474  0.32322698     0.03390
C77         C  0.22163974  0.01056011  0.34182176    -0.10690
H78         H  0.24952179  0.01360874  0.42318974     0.08990
H79         H  0.30036522  0.00290249  0.32775982     0.06520
H80         H  0.19951750  0.01213182  0.32845966     0.06370
C81         C  0.21867606  0.99997597  0.62369294     0.03400
C82         C  0.21827546  0.00283040  0.65964812    -0.12750
C83         C  0.24550129  0.01345273  0.67725144     0.00900
C84         C  0.27298467  0.02180836  0.65748564    -0.11270
C85         C  0.27446242  0.01633542  0.62204128     0.03390
C86         C  0.24703820  0.00643515  0.60516598    -0.10690
H87         H  0.19627836  0.99784888  0.67366628     0.08990
H88         H  0.29356555  0.03203298  0.66940423     0.06520
H89         H  0.24767232  0.00406008  0.57743281     0.06370
C90         C  0.49572330  0.22355851  0.62662154     0.03400
C91         C  0.49880518  0.25201776  0.60656622    -0.12750
C92         C  0.50501774  0.28090355  0.62201042     0.00900
C93         C  0.50519553  0.28215861  0.65787602    -0.11270
C94         C  0.50077580  0.25473213  0.67845498     0.03390
C95         C  0.49812328  0.22539888  0.66278687    -0.10690
H96         H  0.49617676  0.25195498  0.57884492     0.08990
H97         H  0.50754651  0.30479444  0.66982453     0.06520
H98         H  0.49815748  0.20445956  0.67905970     0.06370
C99         C  0.24961731  0.48979304  0.11847897     0.03400
C100        C  0.25308430  0.48880468  0.15435648    -0.12750
C101        C  0.24966507  0.01595334  0.17336503     0.00900
C102        C  0.24244020  0.04430368  0.15618270    -0.11270
C103        C  0.23842301  0.04566186  0.12020672     0.03390
C104        C  0.24290041  0.01833467  0.10154356    -0.10690
H105        H  0.25788598  0.46671185  0.16761471     0.08990
H106        H  0.23961268  0.06515887  0.17090652     0.06520
H107        H  0.24083143  0.01916257  0.07374667     0.06370
O108        O  0.23380860  0.35592366  0.93660079    -0.75020
O109        O  0.28122516  0.36352214  0.96286288    -0.53930
C110        C  0.25841532  0.37288928  0.94394466     0.78710
O111        O  0.15799089  0.27515205  0.06500295    -0.59620
O112        O  0.14978638  0.22886166  0.03804078    -0.52650
C113        C  0.14117598  0.25027010  0.05859525     0.70720
O114        O  0.23241135  0.35241502  0.06165144    -0.74180
O115        O  0.27977894  0.36164809  0.03354740    -0.54740
C116        C  0.25709644  0.36983708  0.05348012     0.76730
O117        O  0.15813785  0.28073104  0.93676028    -0.59320
O118        O  0.14896257  0.23373906  0.96600764    -0.52440
C119        C  0.14042884  0.25654347  0.94588723     0.73320
Zr120      Zr  0.20972274  0.30421406  0.94913982     2.54710
O121        O  0.17392105  0.34732645  0.95222417    -0.79890
O122        O  0.21060455  0.30425882  0.88639352    -0.93300
Zr123      Zr  0.20928217  0.30066828  0.05115454     2.64680
O124        O  0.17055583  0.34138540  0.05466693    -0.98260
O125        O  0.21378943  0.29518883  0.11353897    -0.80320
O126        O  0.23144350  0.32421409  0.99985164    -0.83680
O127        O  0.18705476  0.28094496  0.00045004    -2.18390
O128        O  0.24542309  0.19228908  0.93110930    -0.67070
O129        O  0.19880650  0.18266855  0.96043500    -0.51630
C130        C  0.21994916  0.17564975  0.93793974     0.71700
O131        O  0.32566388  0.26147941  0.05719564    -0.59980
O132        O  0.33131116  0.31220049  0.03726861    -0.51950
C133        C  0.34147607  0.28794324  0.05368586     0.73510
O134        O  0.25068438  0.18490735  0.06149620    -0.71370
O135        O  0.20292424  0.17771701  0.03551598    -0.50050
C136        C  0.22590307  0.16815635  0.05417671     0.74890
O137        O  0.32643305  0.26132640  0.93884579    -0.66700
O138        O  0.33344050  0.30954804  0.96237412    -0.53900
C139        C  0.34314698  0.28614302  0.94539470     0.73270
Zr140      Zr  0.27285901  0.24062511  0.94751975     2.77540
O141        O  0.30914020  0.19802710  0.94156407    -0.97450
O142        O  0.27263535  0.25100444  0.88544158    -0.78270
Zr143      Zr  0.27307534  0.23774276  0.04972329     2.70070
O144        O  0.31325736  0.19994839  0.06263810    -0.79520
O145        O  0.26600045  0.24397021  0.11146746    -0.98600
Zr146      Zr  0.28644369  0.31556786  0.99860836     2.21500
Zr147      Zr  0.19624011  0.22592328  0.00017740     2.11130
O148        O  0.25156682  0.21667792  0.99890902    -2.47290
O149        O  0.29550277  0.26059049  0.99818452    -0.79310
O150        O  0.21809194  0.24958539  0.94772958    -0.71510
O151        O  0.26427175  0.29220423  0.05115811    -2.32460
O152        O  0.26460279  0.29543024  0.94668935    -2.28670
O153        O  0.21803814  0.24594573  0.05208588    -0.73270
H154        H  0.16476892  0.28483227  0.00103483     0.78730
H155        H  0.27397791  0.30131635  0.07107011     0.79820
H156        H  0.25532339  0.19451323  0.99803801     0.82040
H157        H  0.27447200  0.30577393  0.92648982     0.79650
H158        H  0.23058217  0.31087079  0.11942955     0.42690
H159        H  0.24970896  0.22760350  0.11865969     0.41660
H160        H  0.32559395  0.19882562  0.04083358     0.41330
H161        H  0.30010860  0.18018963  0.95609189     0.39270
H162        H  0.25005084  0.25311534  0.87994835     0.42400
H163        H  0.23097937  0.31509223  0.87948864     0.37180
H164        H  0.17357367  0.35269551  0.97685845     0.43300
H165        H  0.15170719  0.33315003  0.04256871     0.39720
H166        H  0.30706000  0.19123690  0.91754255     0.44640
H167        H  0.19439403  0.31928210  0.87950554     0.43360
H168        H  0.16402640  0.34140947  0.07926732     0.43490
H169        H  0.28580471  0.23654047  0.12159336     0.43850
C170        C  0.46007476  0.26925064  0.12475184     0.03400
C171        C  0.46279450  0.26812495  0.16090373    -0.12750
C172        C  0.48946689  0.25583388  0.17645851     0.00900
C173        C  0.01430579  0.24634097  0.15586839    -0.11270
C174        C  0.01487240  0.25225639  0.12000926     0.03390
C175        C  0.48718608  0.26318553  0.10445104    -0.10690
H176        H  0.44451341  0.27723800  0.17702146     0.08990
H177        H  0.03470057  0.23673575  0.16839009     0.06520
H178        H  0.48673227  0.26762185  0.07698458     0.06370
C179        C  0.24209495  0.49681325  0.88305547     0.03400
C180        C  0.24071701  0.49554959  0.84706163    -0.12750
C181        C  0.23386949  0.02219543  0.82679945     0.00900
C182        C  0.22779174  0.05028167  0.84298965    -0.11270
C183        C  0.22882203  0.05248569  0.87918773     0.03390
C184        C  0.23693577  0.02554855  0.89900237    -0.10690
H185        H  0.24509416  0.47363361  0.83468461     0.08990
H186        H  0.22338097  0.07091290  0.82707005     0.06520
H187        H  0.23993489  0.02688281  0.92648662     0.06370
C188        C  0.46464309  0.27416704  0.88007714     0.03400
C189        C  0.46563132  0.27189127  0.84401930    -0.12750
C190        C  0.49325528  0.26265468  0.82706072     0.00900
C191        C  0.01901111  0.25347066  0.84673990    -0.11270
C192        C  0.01834398  0.25578709  0.88257285     0.03390
C193        C  0.49143081  0.26658229  0.89898684    -0.10690
H194        H  0.44504158  0.27741360  0.82917596     0.08990
H195        H  0.04016051  0.24579352  0.83409412     0.06520
H196        H  0.49149637  0.26933072  0.92667585     0.06370
C197        C  0.23740522  0.11073184  0.87732573    -0.05510
C198        C  0.22367481  0.08388835  0.89478303     0.00420
C199        C  0.20381768  0.08855054  0.92412356    -0.08150
C200        C  0.20187498  0.11912453  0.93690389    -0.05530
C201        C  0.21642967  0.14550148  0.91964120     0.00410
C202        C  0.23173178  0.14131443  0.88746733    -0.08060
C203        C  0.24135907  0.16835136  0.86245754     0.62320
H204        H  0.25211198  0.10800781  0.85459643     0.13010
H205        H  0.18959196  0.12235535  0.96116748     0.13020
C206        C  0.18457080  0.06217684  0.94259264     0.62550
F207        F  0.23562330  0.15979032  0.82893810    -0.22620
F208        F  0.27325453  0.17575080  0.86540277    -0.19940
F209        F  0.22418878  0.19471906  0.86821086    -0.19620
F210        F  0.20322631  0.04729423  0.96648897    -0.19670
F211        F  0.17279738  0.04097447  0.91931991    -0.20000
F212        F  0.15890560  0.07363698  0.96005225    -0.22670
C213        C  0.22936142  0.42113834  0.93722947    -0.05510
C214        C  0.25782579  0.40619065  0.93150353     0.00420
C215        C  0.28222115  0.42204012  0.91160941    -0.08150
C216        C  0.27700780  0.45265659  0.89804569    -0.05530
C217        C  0.24803516  0.46724523  0.90317593     0.00410
C218        C  0.22362708  0.45092708  0.92272311    -0.08060
C219        C  0.19118644  0.46418835  0.92762041     0.62320
H220        H  0.21101830  0.40868419  0.95269804     0.13010
H221        H  0.29506753  0.46501971  0.88212632     0.13020
C222        C  0.31262060  0.40601615  0.90318324     0.62550
F223        F  0.16949306  0.44194194  0.94173680    -0.22620
F224        F  0.17957958  0.47470332  0.89633969    -0.19940
F225        F  0.19348450  0.48869075  0.94983117    -0.19620
F226        F  0.30571277  0.37797920  0.88731772    -0.19670
F227        F  0.32884239  0.39990356  0.93315885    -0.20000
F228        F  0.33222681  0.42452825  0.88119015    -0.22670
C229        C  0.42927288  0.29801100  0.07954185    -0.05510
C230        C  0.42920644  0.27696635  0.10838339     0.00420
C231        C  0.39986355  0.26216605  0.11944489    -0.08150
C232        C  0.37219517  0.27054580  0.10284833    -0.05530
C233        C  0.37234049  0.28906456  0.07216425     0.00410
C234        C  0.40183275  0.30322904  0.06005852    -0.08060
C235        C  0.40730201  0.32260259  0.02672057     0.62320
H236        H  0.45151096  0.30942666  0.07095050     0.13010
H237        H  0.34978422  0.26069316  0.11296594     0.13020
C238        C  0.39701919  0.23533530  0.14634148     0.62550
F239        F  0.43053148  0.30918533  0.00720833    -0.22620
F240        F  0.38108454  0.32470960  0.00654816    -0.19940
F241        F  0.41760622  0.35275553  0.03448218    -0.19620
F242        F  0.39784556  0.24708239  0.17902565    -0.19670
F243        F  0.42104518  0.21483143  0.14161286    -0.20000
F244        F  0.36881174  0.21795632  0.14378822    -0.22670
C245        C  0.07246486  0.26365033  0.11921567    -0.05510
C246        C  0.04631764  0.25094892  0.10163442     0.00420
C247        C  0.05197679  0.23560532  0.07018856    -0.08150
C248        C  0.08343226  0.23501970  0.05718475    -0.05530
C249        C  0.10928405  0.24748142  0.07544331     0.00410
C250        C  0.10365855  0.26021503  0.10814647    -0.08060
C251        C  0.13009508  0.26954952  0.13236834     0.62320
H252        H  0.06843817  0.27597842  0.14277344     0.13010
H253        H  0.08791325  0.22541340  0.03214979     0.13020
C254        C  0.02563728  0.22009155  0.04988817     0.62550
F255        F  0.11938302  0.26904290  0.16632156    -0.22440
F256        F  0.14165944  0.29966054  0.12378629    -0.19940
F257        F  0.15431045  0.24871769  0.13062072    -0.19620
F258        F  0.01032581  0.24270148  0.03083407    -0.19670
F259        F  0.50422410  0.20372865  0.07179564    -0.20000
F260        F  0.03740213  0.19886924  0.02715545    -0.22670
C261        C  0.38605822  0.30864462  0.90675911    -0.05510
C262        C  0.37611139  0.28659414  0.93272326     0.00420
C263        C  0.39670299  0.26296704  0.94370288    -0.08150
C264        C  0.42551477  0.26050346  0.92612327    -0.05530
C265        C  0.43506874  0.28143257  0.89887698     0.00410
C266        C  0.41578752  0.30705783  0.89016005    -0.08060
C267        C  0.42534127  0.33275921  0.86352896     0.62320
H268        H  0.37013244  0.32677572  0.89886437     0.13010
H269        H  0.44031423  0.24108323  0.93272285     0.13020
C270        C  0.38823757  0.23976586  0.97334992     0.62550
F271        F  0.41435826  0.36133655  0.87353579    -0.22620
F272        F  0.41222637  0.32566954  0.83217763    -0.19940
F273        F  0.45782862  0.33638189  0.85965827    -0.19620
F274        F  0.37660724  0.25544770  0.00104600    -0.19670
F275        F  0.36570693  0.21789944  0.96311439    -0.20000
F276        F  0.41426466  0.22374970  0.98441038    -0.22670
C277        C  0.06115366  0.28216077  0.91271187    -0.05510
C278        C  0.04789363  0.25376657  0.90185785     0.00420
C279        C  0.06324419  0.22538765  0.90865967    -0.08150
C280        C  0.09326883  0.22690615  0.92392694    -0.05530
C281        C  0.10766389  0.25585677  0.93275569     0.00410
C282        C  0.09041994  0.28381197  0.92874318    -0.08060
C283        C  0.10249316  0.31576984  0.94030171     0.62320
H284        H  0.04860471  0.30347824  0.90749231     0.13010
H285        H  0.10603848  0.20561206  0.92818614     0.13020
C286        C  0.04760680  0.19390040  0.90048427     0.62550
F287        F  0.07846648  0.33682797  0.94238274    -0.22620
F288        F  0.12472845  0.32811255  0.91657879    -0.19940
F289        F  0.11549829  0.31309995  0.97270214    -0.19620
F290        F  0.04424558  0.19171776  0.86527207    -0.19670
F291        F  0.01807147  0.19101158  0.91633903    -0.20000
F292        F  0.06514852  0.16902921  0.91210693    -0.22670
C293        C  0.25023012  0.08479441  0.07253032    -0.05510
C294        C  0.23127472  0.07580359  0.10154009     0.00420
C295        C  0.20708015  0.09600008  0.11195209    -0.08150
C296        C  0.20533852  0.12589419  0.09535176    -0.05530
C297        C  0.22532864  0.13515015  0.06740333     0.00410
C298        C  0.24719989  0.11379477  0.05479584    -0.08060
C299        C  0.26731743  0.12159443  0.02263363     0.62320
H300        H  0.26834230  0.06925629  0.06437990     0.13010
H301        H  0.18850929  0.14237173  0.10454931     0.13020
C302        C  0.18279477  0.08711293  0.14019884     0.62550
F303        F  0.28398494  0.09607560  0.01237705    -0.22620
F304        F  0.28883661  0.14592795  0.02867736    -0.19940
F305        F  0.24811110  0.13040425  0.99583821    -0.19620
F306        F  0.19270456  0.09931431  0.17097350    -0.19670
F307        F  0.17791060  0.05486172  0.14426904    -0.20000
F308        F  0.15394272  0.09943473  0.13213347    -0.22670
C309        C  0.22872167  0.41710018  0.06799569    -0.05510
C310        C  0.25765182  0.40195193  0.06743669     0.00420
C311        C  0.28446489  0.41648990  0.08266947    -0.08150
C312        C  0.28111434  0.44576245  0.09814693    -0.05530
C313        C  0.25197007  0.46048590  0.09908725     0.00410
C314        C  0.22518284  0.44585368  0.08402096    -0.08060
C315        C  0.19259890  0.45961174  0.08621423     0.62320
H316        H  0.20846428  0.40577454  0.05614122     0.13010
H317        H  0.30114732  0.45723137  0.11026139     0.13020
C318        C  0.31595973  0.40068017  0.08396698     0.62550
F319        F  0.16925645  0.43915845  0.07437168    -0.22620
F320        F  0.19205277  0.48714961  0.06637748    -0.19940
F321        F  0.18516157  0.46577804  0.12011113    -0.19620
F322        F  0.32825380  0.39858280  0.05093283    -0.19670
F323        F  0.31185628  0.37080278  0.09899100    -0.20000
F324        F  0.33784350  0.41735736  0.10308892    -0.22670
C325        C  0.02279122  0.27209688  0.73372031    -0.05510
C326        C  0.49773571  0.25738975  0.71636418     0.00420
C327        C  0.46984561  0.24764642  0.73522042    -0.08150
C328        C  0.47014943  0.24809932  0.77131151    -0.05530
C329        C  0.49524277  0.26253871  0.78880149     0.00410
C330        C  0.02111959  0.27677988  0.76937981    -0.08060
C331        C  0.04629329  0.29827202  0.78488714     0.62320
H332        H  0.04339998  0.28099825  0.71894494     0.13010
H333        H  0.44982368  0.23826689  0.78592058     0.13020
C334        C  0.43859075  0.23883366  0.71884635     0.62550
F335        F  0.05695369  0.32125671  0.76085995    -0.22620
F336        F  0.07173449  0.28097969  0.79488970    -0.19940
F337        F  0.03452970  0.31361726  0.81292733    -0.19620
F338        F  0.43309463  0.20663497  0.72203807    -0.19670
F339        F  0.43763820  0.24850072  0.68455141    -0.20000
F340        F  0.41434636  0.25334530  0.73567000    -0.22670
C341        C  0.21597383  0.02716721  0.73059606    -0.05510
C342        C  0.24420617  0.01663209  0.71584483     0.00420
C343        C  0.26889655  0.00782403  0.73855502    -0.08150
C344        C  0.26476123  0.01179928  0.77417989    -0.05530
C345        C  0.23621475  0.02116870  0.78853859     0.00410
C346        C  0.21085257  0.02785532  0.76650162    -0.08060
C347        C  0.17790461  0.03362917  0.78050600     0.62320
H348        H  0.19735009  0.03454617  0.71374686     0.13010
H349        H  0.28389112  0.00673804  0.79149922     0.13020
C350        C  0.29926697  0.99303876  0.72695554     0.62550
F351        F  0.15553838  0.03217396  0.75488448    -0.22620
F352        F  0.17708078  0.06301686  0.79441119    -0.19940
F353        F  0.16929054  0.51089924  0.80563037    -0.19620
F354        F  0.32161439  0.01629740  0.71698176    -0.19670
F355        F  0.29373556  0.97301289  0.70027618    -0.20000
F356        F  0.31193134  0.97523610  0.75350060    -0.22670
C357        C  0.27422902  0.02540571  0.26665239    -0.05510
C358        C  0.25045476  0.00697191  0.28459918     0.00420
C359        C  0.22756546  0.99002447  0.26514960    -0.08150
C360        C  0.22736638  0.99507999  0.22914803    -0.05530
C361        C  0.25089770  0.01369692  0.21156328     0.00410
C362        C  0.27560344  0.02797281  0.23037607    -0.08060
C363        C  0.30389017  0.04472463  0.21225269     0.62320
H364        H  0.29179222  0.03816455  0.28127690     0.13010
H365        H  0.20911542  0.98347740  0.21427138     0.13020
C366        C  0.20371948  0.96560062  0.28060279     0.62550
F367        F  0.32695053  0.05361062  0.23531755    -0.22620
F368        F  0.29462660  0.07147809  0.19466806    -0.19940
F369        F  0.31726299  0.52482031  0.18915813    -0.19620
F370        F  0.17471718  0.97900857  0.28459043    -0.19670
F371        F  0.21322413  0.45320450  0.31197559    -0.20000
F372        F  0.20008556  0.94066345  0.25879543    -0.22670
C373        C  0.47729783  0.24147669  0.27299877    -0.05510
C374        C  0.50157250  0.26098298  0.28595034     0.00420
C375        C  0.02319229  0.27716901  0.26259362    -0.08150
C376        C  0.01775709  0.27532169  0.22703667    -0.05530
C377        C  0.49338000  0.25580368  0.21428011     0.00410
C378        C  0.47429535  0.23684405  0.23765961    -0.08060
C379        C  0.45236492  0.20988411  0.22733044     0.62320
H380        H  0.46145840  0.22823461  0.29089272     0.13010
H381        H  0.03288144  0.28890257  0.20875456     0.13020
C382        C  0.05266386  0.29499548  0.27451740     0.62550
F383        F  0.45886813  0.18310289  0.24676536    -0.22620
F384        F  0.45600958  0.20273725  0.19314467    -0.19940
F385        F  0.42138447  0.21723475  0.23379150    -0.19620
F386        F  0.06733585  0.27767179  0.30001619    -0.19670
F387        F  0.04484034  0.32371043  0.28702965    -0.20000
F388        F  0.07434028  0.30062164  0.24768206    -0.22670
C389        C  0.47777464  0.32584461  0.59795037    -0.05510
C390        C  0.50616567  0.31088017  0.60159416     0.00420
C391        C  0.03465186  0.32607539  0.58940506    -0.08150
C392        C  0.03381906  0.35702371  0.57515260    -0.05530
C393        C  0.00530888  0.37296039  0.57257236     0.00410
C394        C  0.47648826  0.35635340  0.58338966    -0.08060
C395        C  0.44405431  0.36986391  0.57967153     0.62320
H396        H  0.45644842  0.31343183  0.60771354     0.13010
H397        H  0.05563211  0.36914403  0.56648198     0.13020
C398        C  0.06559258  0.30947844  0.59172066     0.62550
F399        F  0.41979186  0.34780835  0.58741691    -0.22620
F400        F  0.44028886  0.38022665  0.54592927    -0.19940
F401        F  0.44094712  0.39416376  0.60209370    -0.19620
F402        F  0.06324346  0.28178312  0.57409506    -0.19670
F403        F  0.07216277  0.30256745  0.62588411    -0.20000
F404        F  0.09060218  0.32775943  0.57748951    -0.22670
C405        C  0.46940729  0.13921754  0.60135354    -0.05510
C406        C  0.48602771  0.13709775  0.57027606     0.00420
C407        C  0.50481444  0.16308433  0.55738916    -0.08150
C408        C  0.50848696  0.18971886  0.57755084    -0.05530
C409        C  0.49162963  0.19261123  0.60888641     0.00410
C410        C  0.47065850  0.16688969  0.62035593    -0.08060
C411        C  0.44842904  0.16788347  0.65129625     0.62320
H412        H  0.45540977  0.11873374  0.61080001     0.13010
H413        H  0.52451828  0.20876477  0.56846279     0.13020
C414        C  0.51906189  0.16322832  0.52137320     0.62550
F415        F  0.42381125  0.14555637  0.64963507    -0.22620
F416        F  0.43505668  0.19682900  0.65219758    -0.19940
F417        F  0.96444537  0.16157797  0.68133335    -0.19620
F418        F  0.49474746  0.15890318  0.49852151    -0.19670
F419        F  0.03990873  0.13923595  0.51849290    -0.20000
F420        F  0.03505869  0.19143072  0.51245490    -0.22670
C421        C  0.48753677  0.37168571  0.40417555    -0.05510
C422        C  0.01181728  0.37788078  0.42794289     0.00420
C423        C  0.03260887  0.35333055  0.43643008    -0.08150
C424        C  0.02900436  0.32462535  0.41953351    -0.05530
C425        C  0.50453863  0.31895707  0.39628907     0.00410
C426        C  0.48238657  0.34226395  0.38990251    -0.08060
C427        C  0.45240110  0.33724654  0.36930780     0.62320
H428        H  0.47110478  0.38967070  0.39740085     0.13010
H429        H  0.04546776  0.30617672  0.42420845     0.13020
C430        C  0.05818196  0.35659841  0.46320020     0.62550
F431        F  0.42706685  0.34911694  0.38694665    -0.22620
F432        F  0.44487642  0.30588234  0.36405431    -0.19940
F433        F  0.45590711  0.35312846  0.33770740    -0.19620
F434        F  0.04470359  0.36325773  0.49464671    -0.19670
F435        F  0.07977845  0.38035004  0.45290280    -0.20000
F436        F  0.07455093  0.32927733  0.46780417    -0.22670
C437        C  0.46948281  0.18549906  0.39626745    -0.05510
C438        C  0.49885183  0.20177338  0.39792463     0.00420
C439        C  0.02438334  0.18772899  0.41450059    -0.08150
C440        C  0.01967451  0.15718012  0.42868310    -0.05530
C441        C  0.49033769  0.14056529  0.42700036     0.00410
C442        C  0.46471572  0.15484664  0.41049308    -0.08060
C443        C  0.43348272  0.13711206  0.40549731     0.62320
H444        H  0.45053908  0.19683173  0.38284934     0.13010
H445        H  0.03901790  0.14594762  0.44147835     0.13020
C446        C  0.05656900  0.20463403  0.41639118     0.62550
F447        F  0.41310211  0.15423794  0.38538932    -0.22620
F448        F  0.41867908  0.13022626  0.43701529    -0.19940
F449        F  0.43909968  0.10959239  0.38907456    -0.19620
F450        F  0.05410135  0.23152280  0.43509418    -0.19670
F451        F  0.06775248  0.21283778  0.38348132    -0.20000
F452        F  0.07853834  0.18600327  0.43226893    -0.22670
C453        C  0.18052250  0.02006903  0.58236272    -0.05510
C454        C  0.18876635  0.99530045  0.60457807     0.00420
C455        C  0.16913365  0.46744542  0.60688483    -0.08150
C456        C  0.14036470  0.46661156  0.58872207    -0.05530
C457        C  0.13150810  0.49224946  0.56768179     0.00410
C458        C  0.15307466  0.01861392  0.56279743    -0.08060
C459        C  0.14922752  0.04569104  0.53691944     0.62320
H460        H  0.19615501  0.04090400  0.57985094     0.13010
H461        H  0.12409682  0.44636699  0.59178480     0.13020
C462        C  0.17873118  0.43866935  0.62773224     0.62550
F463        F  0.14346203  0.07274796  0.55432546    -0.22620
F464        F  0.12525299  0.04018780  0.51415092    -0.19940
F465        F  0.17685464  0.05058404  0.51754575    -0.19620
F466        F  0.17785163  0.44452433  0.66251720    -0.19670
F467        F  0.20905151  0.43107072  0.61822997    -0.20000
F468        F  0.15871596  0.41283651  0.62231813    -0.22670
C469        C  0.31998275  0.04854515  0.59619135    -0.05510
C470        C  0.30530785  0.01874680  0.60325211     0.00420
C471        C  0.32089005  0.49140771  0.59395783    -0.08150
C472        C  0.35096280  0.49486741  0.57840600    -0.05530
C473        C  0.36622876  0.02448723  0.57171988     0.00410
C474        C  0.35018981  0.05201680  0.58002060    -0.08060
C475        C  0.36481132  0.08472652  0.57246190     0.62320
H476        H  0.30747323  0.06907771  0.60346982     0.13010
H477        H  0.36284267  0.47401470  0.57104350     0.13020
C478        C  0.30619267  0.45850288  0.60086682     0.62550
F479        F  0.34642115  0.10787892  0.58553536    -0.22620
F480        F  0.36775531  0.09016034  0.53718369    -0.19940
F481        F  0.39430194  0.08741203  0.58719594    -0.19620
F482        F  0.27984076  0.45412175  0.58076522    -0.19670
F483        F  0.29746334  0.45445372  0.63522512    -0.20000
F484        F  0.32699159  0.43530726  0.59326787    -0.22670
C485        C  0.17461263  0.47714620  0.39518139    -0.05510
C486        C  0.19099197  0.00642919  0.39715834     0.00420
C487        C  0.17787748  0.03048627  0.41633592    -0.08150
C488        C  0.14846562  0.02428758  0.43287048    -0.05530
C489        C  0.13164030  0.49524539  0.43042513     0.00410
C490        C  0.14491503  0.47112348  0.41146208    -0.08060
C491        C  0.12757337  0.43963998  0.40780308     0.62320
H492        H  0.18526376  0.45907669  0.38038668     0.13010
H493        H  0.13782222  0.04260241  0.44725517     0.13020
C494        C  0.19399767  0.06295213  0.41805786     0.62550
F495        F  0.14353889  0.42040167  0.38597380    -0.22620
F496        F  0.09784055  0.44399907  0.39457606    -0.19940
F497        F  0.12468480  0.42453613  0.43982644    -0.19620
F498        F  0.20051886  0.07505316  0.38505685    -0.19670
F499        F  0.22185755  0.06114260  0.43592486    -0.20000
F500        F  0.17518042  0.08381820  0.43467825    -0.22670
C501        C  0.34407995  0.00577729  0.44514577    -0.05510
C502        C  0.36858930  0.02349538  0.42809662     0.00420
C503        C  0.36393969  0.03541965  0.39413149    -0.08150
C504        C  0.33392006  0.03150235  0.37972875    -0.05530
C505        C  0.30959238  0.01258915  0.39596477     0.00410
C506        C  0.31540783  0.99825325  0.42888240    -0.08060
C507        C  0.29365762  0.97325067  0.44681491     0.62320
H508        H  0.34849038  0.99547709  0.47050133     0.13010
H509        H  0.32993614  0.04256038  0.35467207     0.13020
C510        C  0.38972357  0.05104709  0.37109918     0.62550
F511        F  0.31134658  0.45026218  0.46244070    -0.22620
F512        F  0.27386817  0.45818174  0.42406748    -0.19940
F513        F  0.27584138  0.98689066  0.47202840    -0.19620
F514        F  0.39195556  0.03473535  0.34095176    -0.19670
F515        F  0.41909823  0.05164809  0.38598439    -0.20000
F516        F  0.38191381  0.08161431  0.36289565    -0.22670
O517        O  0.41499213  0.99750870  0.43750914    -0.75020
O518        O  0.41008646  0.54517399  0.46220910    -0.53930
C519        C  0.39999623  0.52236527  0.44362367     0.78710
O520        O  0.48294771  0.92322279  0.56521761    -0.59620
O521        O  0.02999474  0.91581334  0.53808205    -0.52650
C522        C  0.00632778  0.90616281  0.55779709     0.70720
O523        O  0.41510651  0.00051240  0.56645620    -0.74180
O524        O  0.40864270  0.54560145  0.53447241    -0.54740
C525        C  0.39895479  0.52417360  0.55686968     0.76730
O526        O  0.48802220  0.92600606  0.43746221    -0.59320
O527        O  0.03444197  0.91820616  0.46419703    -0.52440
C528        C  0.01193931  0.90935721  0.44428575     0.73320
Zr529      Zr  0.46585458  0.97605613  0.44917303     2.54710
O530        O  0.42499319  0.93502683  0.44179567    -0.79890
O531        O  0.47260410  0.98333479  0.38693195    -0.93300
Zr532      Zr  0.46348957  0.97510313  0.55125162     2.64680
O533        O  0.41447664  0.94404118  0.54523748    -0.98260
O534        O  0.46408695  0.97165576  0.61398797    -0.80320
O535        O  0.44398356  0.99683976  0.49954950    -0.83680
O536        O  0.48469395  0.95338730  0.50096620    -2.18390
O537        O  0.08278845  0.51767970  0.43542475    -0.67070
O538        O  0.08880784  0.97097001  0.46489246    -0.51630
C539        C  0.09877316  0.99379110  0.44415327     0.71700
O540        O  0.01127047  0.59024024  0.56142126    -0.59980
O541        O  0.46408002  0.59723524  0.53487251    -0.51950
C542        C  0.48695961  0.60620866  0.55429847     0.73510
O543        O  0.08328690  0.51735850  0.56157255    -0.71370
O544        O  0.08783519  0.96967028  0.53687830    -0.50050
C545        C  0.09868936  0.99278816  0.55462904     0.74890
O546        O  0.01290478  0.59171314  0.43451959    -0.66700
O547        O  0.46549605  0.59853049  0.46136830    -0.53900
C548        C  0.48891086  0.60798983  0.44154118     0.73270
Zr549      Zr  0.03265181  0.54034447  0.44756654     2.77540
O550        O  0.07397322  0.58177066  0.44058019    -0.97450
O551        O  0.02739695  0.53559927  0.38554326    -0.78270
Zr552      Zr  0.03186265  0.53911665  0.55019334     2.70070
O553        O  0.07331098  0.57966544  0.55661505    -0.79520
O554        O  0.02495182  0.53148278  0.61235339    -0.98600
Zr555      Zr  0.45653266  0.55170853  0.49863631     2.21500
Zr556      Zr  0.04071002  0.96338202  0.50110602     2.11130
O557        O  0.05240962  0.51864604  0.49920991    -2.47290
O558        O  0.01229258  0.56173911  0.49846870    -0.79310
O559        O  0.02129843  0.98536995  0.44812913    -0.71510
O560        O  0.47635242  0.52973196  0.55129729    -2.32460
O561        O  0.47740233  0.53095978  0.44677233    -2.28670
O562        O  0.01924039  0.98431207  0.55270667    -0.73270
H563        H  0.47927428  0.93113473  0.50122665     0.78730
H564        H  0.46699516  0.53911680  0.57115220     0.79820
H565        H  0.07487573  0.52291051  0.49860042     0.82040
H566        H  0.46853185  0.54078761  0.42652478     0.79650
H567        H  0.46358218  0.99376280  0.62108741     0.42690
H568        H  0.03536453  0.51156044  0.61793173     0.41660
H569        H  0.07922614  0.58651995  0.53264549     0.41330
H570        H  0.08954760  0.57694506  0.45858421     0.39270
H571        H  0.03735215  0.51558140  0.38041357     0.42400
H572        H  0.45613407  0.99804512  0.37999420     0.37180
H573        H  0.41167828  0.93527132  0.46298839     0.43300
H574        H  0.41867676  0.92942095  0.52660083     0.39720
H575        H  0.08488566  0.57781136  0.41847556     0.44640
H576        H  0.46537197  0.96291831  0.37768382     0.43360
H577        H  0.41174599  0.93084586  0.56659504     0.43490
H578        H  0.03897381  0.54799972  0.62208351     0.43850
C579        C  0.50274281  0.73219900  0.37902894     0.03400
C580        C  0.50405086  0.73274108  0.34300963    -0.12750
C581        C  0.50460165  0.76135170  0.32396327     0.00900
C582        C  0.50467545  0.78955793  0.34159635    -0.11270
C583        C  0.50414215  0.78918119  0.37783433     0.03390
C584        C  0.50289648  0.76038110  0.39646017    -0.10690
H585        H  0.50365969  0.71068950  0.32977190     0.08990
H586        H  0.50354719  0.81175395  0.32740919     0.06520
H587        H  0.50124354  0.75991289  0.42438538     0.06370
C588        C  0.22135139  0.51084212  0.37791457     0.03400
C589        C  0.24993493  0.51184089  0.39550645    -0.12750
C590        C  0.27881288  0.50949445  0.37768305     0.00900
C591        C  0.27838718  0.50609991  0.34163610    -0.11270
C592        C  0.25000518  0.50731499  0.32322824     0.03390
C593        C  0.22164046  0.51056001  0.34182318    -0.10690
H594        H  0.24952263  0.51360886  0.42319112     0.08990
H595        H  0.30036604  0.50290343  0.32776092     0.06520
H596        H  0.19951818  0.51213155  0.32846113     0.06370
C597        C  0.21867705  0.49997485  0.62369276     0.03400
C598        C  0.21827647  0.50282934  0.65964790    -0.12750
C599        C  0.24550223  0.51345195  0.67725115     0.00900
C600        C  0.27298564  0.52180761  0.65748532    -0.11270
C601        C  0.27446350  0.51633453  0.62204096     0.03390
C602        C  0.24703924  0.50643404  0.60516575    -0.10690
H603        H  0.19627937  0.49784782  0.67366609     0.08990
H604        H  0.29356645  0.53203241  0.66940388     0.06520
H605        H  0.24767329  0.50405910  0.57743257     0.06370
C606        C  0.49572360  0.72355829  0.62662201     0.03400
C607        C  0.49880500  0.75201755  0.60656671    -0.12750
C608        C  0.50501717  0.78090337  0.62201095     0.00900
C609        C  0.50519510  0.78215840  0.65787653    -0.11270
C610        C  0.50077580  0.75473186  0.67845544     0.03390
C611        C  0.49812361  0.72539862  0.66278733    -0.10690
H612        H  0.49617654  0.75195474  0.57884541     0.08990
H613        H  0.50754582  0.80479423  0.66982508     0.06520
H614        H  0.49815806  0.70445925  0.67906010     0.06370
C615        C  0.24961733  0.98979308  0.11847813     0.03400
C616        C  0.25308436  0.98880469  0.15435560    -0.12750
C617        C  0.24966507  0.51595336  0.17336592     0.00900
C618        C  0.24244025  0.54430370  0.15618349    -0.11270
C619        C  0.23842313  0.54566188  0.12020748     0.03390
C620        C  0.24290051  0.51833465  0.10154437    -0.10690
H621        H  0.25788608  0.96671187  0.16761382     0.08990
H622        H  0.23961277  0.56515893  0.17090726     0.06520
H623        H  0.24083159  0.51916254  0.07374747     0.06370
O624        O  0.23380850  0.85592356  0.93660079    -0.75020
O625        O  0.28122509  0.86352201  0.96286283    -0.53930
C626        C  0.25841523  0.87288917  0.94394465     0.78710
O627        O  0.15799086  0.77515193  0.06500295    -0.59620
O628        O  0.14978633  0.72886153  0.03804082    -0.52650
C629        C  0.14117595  0.75026999  0.05859529     0.70720
O630        O  0.23241133  0.85241488  0.06165132    -0.74180
O631        O  0.27977890  0.86164795  0.03354723    -0.54740
C632        C  0.25709641  0.86983694  0.05347994     0.76730
O633        O  0.15813780  0.78073091  0.93676028    -0.59320
O634        O  0.14896251  0.73373893  0.96600766    -0.52440
C635        C  0.14042878  0.75654334  0.94588724     0.73320
Zr636      Zr  0.20972268  0.80421392  0.94913980     2.54710
O637        O  0.17392100  0.84732632  0.95222420    -0.79890
O638        O  0.21060447  0.80425871  0.88639350    -0.93300
Zr639      Zr  0.20928214  0.80066814  0.05115451     2.64680
O640        O  0.17055581  0.84138527  0.05466691    -0.98260
O641        O  0.21378944  0.79518875  0.11353894    -0.80320
O642        O  0.23144343  0.82421396  0.99985160    -0.83680
O643        O  0.18705473  0.78094480  0.00045002    -2.18390
O644        O  0.24542306  0.69228896  0.93110926    -0.67070
O645        O  0.19880649  0.68266839  0.96043498    -0.51630
C646        C  0.21994914  0.67564962  0.93793969     0.71700
O647        O  0.32566383  0.76147939  0.05719559    -0.59980
O648        O  0.33131107  0.81220046  0.03726851    -0.51950
C649        C  0.34147600  0.78794323  0.05368578     0.73510
O650        O  0.25068438  0.68490723  0.06149628    -0.71370
O651        O  0.20292424  0.67771684  0.03551607    -0.50050
C652        C  0.22590307  0.66815620  0.05417683     0.74890
O653        O  0.32643300  0.76132628  0.93884578    -0.66700
O654        O  0.33344040  0.80954795  0.96237406    -0.53900
C655        C  0.34314690  0.78614292  0.94539468     0.73270
Zr656      Zr  0.27285896  0.74062497  0.94751973     2.77540
O657        O  0.30914017  0.69802698  0.94156406    -0.97450
O658        O  0.27263531  0.75100431  0.88544156    -0.78270
Zr659      Zr  0.27307532  0.73774264  0.04972327     2.70070
O660        O  0.31325738  0.69994830  0.06263805    -0.79520
O661        O  0.26600046  0.74397013  0.11146744    -0.98600
Zr662      Zr  0.28644360  0.81556772  0.99860828     2.21500
Zr663      Zr  0.19624006  0.72592311  0.00017742     2.11130
O664        O  0.25156679  0.71667778  0.99890902    -2.47290
O665        O  0.29550273  0.76059036  0.99818449    -0.79310
O666        O  0.21809189  0.74958524  0.94772960    -0.71510
O667        O  0.26427171  0.79220411  0.05115806    -2.32460
O668        O  0.26460272  0.79543010  0.94668928    -2.28670
O669        O  0.21803812  0.74594559  0.05208588    -0.73270
H670        H  0.16476889  0.78483210  0.00103483     0.78730
H671        H  0.27397788  0.80131625  0.07107005     0.79820
H672        H  0.25532336  0.69451309  0.99803802     0.82040
H673        H  0.27447192  0.80577379  0.92648974     0.79650
H674        H  0.23058214  0.81087074  0.11942951     0.42690
H675        H  0.24970897  0.72760343  0.11865969     0.41660
H676        H  0.32559395  0.69882555  0.04083351     0.41330
H677        H  0.30010856  0.68018950  0.95609187     0.39270
H678        H  0.25005081  0.75311530  0.87994834     0.42400
H679        H  0.23097928  0.81509213  0.87948861     0.37180
H680        H  0.17357365  0.85269538  0.97685847     0.43300
H681        H  0.15170715  0.83314989  0.04256873     0.39720
H682        H  0.30705999  0.69123679  0.91754254     0.44640
H683        H  0.19439394  0.81928198  0.87950553     0.43360
H684        H  0.16402641  0.84140937  0.07926731     0.43490
H685        H  0.28580472  0.73654039  0.12159333     0.43850
C686        C  0.46007474  0.76925055  0.12475149     0.03400
C687        C  0.46279451  0.76812475  0.16090336    -0.12750
C688        C  0.48946687  0.75583355  0.17645805     0.00900
C689        C  0.01430582  0.74634107  0.15586858    -0.11270
C690        C  0.01487242  0.75225641  0.12000943     0.03390
C691        C  0.48718605  0.76318550  0.10445063    -0.10690
H692        H  0.44451347  0.77723780  0.17702115     0.08990
H693        H  0.03470059  0.73673587  0.16839030     0.06520
H694        H  0.48673224  0.76762193  0.07698419     0.06370
C695        C  0.24209492  0.99681327  0.88305574     0.03400
C696        C  0.24071683  0.99554961  0.84706192    -0.12750
C697        C  0.23386974  0.52219540  0.82679910     0.00900
C698        C  0.22779188  0.55028163  0.84298928    -0.11270
C699        C  0.22882201  0.55248566  0.87918739     0.03390
C700        C  0.23693571  0.52554852  0.89900206    -0.10690
H701        H  0.24509390  0.97363363  0.83468487     0.08990
H702        H  0.22338115  0.57091286  0.82706966     0.06520
H703        H  0.23993475  0.52688279  0.92648631     0.06370
C704        C  0.46464310  0.77416706  0.88007741     0.03400
C705        C  0.46563129  0.77189121  0.84401958    -0.12750
C706        C  0.49325523  0.76265458  0.82706102     0.00900
C707        C  0.01901111  0.75347067  0.84673978    -0.11270
C708        C  0.01834397  0.75578707  0.88257274     0.03390
C709        C  0.49143081  0.76658232  0.89898711    -0.10690
H710        H  0.44504155  0.77741353  0.82917624     0.08990
H711        H  0.04016052  0.74579352  0.83409401     0.06520
H712        H  0.49149639  0.76933079  0.92667611     0.06370
C713        C  0.23740510  0.61073183  0.87732545    -0.05510
C714        C  0.22367472  0.58388830  0.89478271     0.00420
C715        C  0.20381766  0.58855044  0.92412332    -0.08150
C716        C  0.20187501  0.61912439  0.93690376    -0.05530
C717        C  0.21642965  0.64550138  0.91964110     0.00410
C718        C  0.23173170  0.64131439  0.88746717    -0.08060
C719        C  0.24135900  0.66835139  0.86245746     0.62320
H720        H  0.25211183  0.60800785  0.85459613     0.13010
H721        H  0.18959205  0.62235516  0.96116740     0.13020
C722        C  0.18457078  0.56217673  0.94259240     0.62550
F723        F  0.23562330  0.65979042  0.82893798    -0.22620
F724        F  0.27325445  0.67575085  0.86540278    -0.19940
F725        F  0.22418867  0.69471905  0.86821083    -0.19620
F726        F  0.20322628  0.54729420  0.96648881    -0.19670
F727        F  0.17279745  0.54097431  0.91931968    -0.20000
F728        F  0.15890553  0.57363686  0.96005191    -0.22670
C729        C  0.22936133  0.92113825  0.93722953    -0.05510
C730        C  0.25782570  0.90619056  0.93150357     0.00420
C731        C  0.28222108  0.92204007  0.91160951    -0.08150
C732        C  0.27700776  0.95265658  0.89804588    -0.05530
C733        C  0.24803512  0.96724523  0.90317616     0.00410
C734        C  0.22362703  0.95092705  0.92272327    -0.08060
C735        C  0.19118640  0.96418833  0.92762057     0.62320
H736        H  0.21101820  0.90868408  0.95269804     0.13010
H737        H  0.29506750  0.96501972  0.88212655     0.13020
C738        C  0.31262054  0.90601611  0.90318331     0.62550
F739        F  0.16949301  0.94194195  0.94173701    -0.22620
F740        F  0.17957953  0.97470327  0.89633984    -0.19940
F741        F  0.19348448  0.98869077  0.94983128    -0.19620
F742        F  0.30571271  0.87797919  0.88731773    -0.19670
F743        F  0.32884232  0.89990347  0.93315891    -0.20000
F744        F  0.33222675  0.92452825  0.88119026    -0.22670
C745        C  0.42927282  0.79801099  0.07954161    -0.05510
C746        C  0.42920640  0.77696632  0.10838314     0.00420
C747        C  0.39986351  0.76216608  0.11944472    -0.08150
C748        C  0.37219511  0.77054589  0.10284824    -0.05530
C749        C  0.37234042  0.78906460  0.07216414     0.00410
C750        C  0.40183267  0.80322906  0.06005835    -0.08060
C751        C  0.40730190  0.82260262  0.02672040     0.62320
H752        H  0.45151089  0.80942663  0.07095022     0.13010
H753        H  0.34978416  0.76069330  0.11296591     0.13020
C754        C  0.39701913  0.73533533  0.14634131     0.62550
F755        F  0.43053131  0.80918534  0.00720810    -0.22620
F756        F  0.38108440  0.82470968  0.00654804    -0.19940
F757        F  0.41760617  0.85275555  0.03448201    -0.19620
F758        F  0.39784553  0.74708241  0.17902548    -0.19670
F759        F  0.42104509  0.71483143  0.14161265    -0.20000
F760        F  0.36881166  0.71795638  0.14378807    -0.22670
C761        C  0.07246489  0.76365027  0.11921578    -0.05510
C762        C  0.04631764  0.75094888  0.10163457     0.00420
C763        C  0.05197675  0.73560528  0.07018869    -0.08150
C764        C  0.08343221  0.73501963  0.05718485    -0.05530
C765        C  0.10928403  0.74748133  0.07544338     0.00410
C766        C  0.10365857  0.76021495  0.10814654    -0.08060
C767        C  0.13009513  0.76954946  0.13236837     0.62320
H768        H  0.06843824  0.77597838  0.14277354     0.13010
H769        H  0.08791317  0.72541333  0.03214989     0.13020
C770        C  0.02563722  0.72009154  0.04988832     0.62550
F771        F  0.11938311  0.76904285  0.16632160    -0.22440
F772        F  0.14165947  0.79966048  0.12378630    -0.19940
F773        F  0.15431049  0.74871764  0.13062072    -0.19620
F774        F  0.01032580  0.74270149  0.03083418    -0.19670
F775        F  0.50422427  0.70372849  0.07179525    -0.20000
F776        F  0.03740203  0.69886919  0.02715562    -0.22670
C777        C  0.38605816  0.80864455  0.90675915    -0.05510
C778        C  0.37611131  0.78659405  0.93272329     0.00420
C779        C  0.39670294  0.76296701  0.94370300    -0.08150
C780        C  0.42551477  0.76050349  0.92612349    -0.05530
C781        C  0.43506876  0.78143260  0.89887721     0.00410
C782        C  0.41578750  0.80705781  0.89016019    -0.08060
C783        C  0.42534125  0.83275919  0.86352910     0.62320
H784        H  0.37013237  0.82677562  0.89886436     0.13010
H785        H  0.44031425  0.74108329  0.93272312     0.13020
C786        C  0.38823748  0.73976581  0.97335001     0.62550
F787        F  0.41435831  0.86133654  0.87353598    -0.22620
F788        F  0.41222626  0.82566957  0.83217779    -0.19940
F789        F  0.45782860  0.83638182  0.85965831    -0.19620
F790        F  0.37660710  0.75544764  0.00104607    -0.19670
F791        F  0.36570688  0.71789938  0.96311443    -0.20000
F792        F  0.41426456  0.72374966  0.98441052    -0.22670
C793        C  0.06115366  0.78216071  0.91271181    -0.05510
C794        C  0.04789361  0.75376652  0.90185776     0.00420
C795        C  0.06324414  0.72538759  0.90865960    -0.08150
C796        C  0.09326877  0.72690606  0.92392692    -0.05530
C797        C  0.10766383  0.75585666  0.93275570     0.00410
C798        C  0.09041991  0.78381188  0.92874317    -0.08060
C799        C  0.10249314  0.81576975  0.94030172     0.62320
H800        H  0.04860473  0.80347820  0.90749223     0.13010
H801        H  0.10603839  0.70561196  0.92818614     0.13020
C802        C  0.04760673  0.69390036  0.90048419     0.62550
F803        F  0.07846646  0.83682787  0.94238276    -0.22620
F804        F  0.12472842  0.82811246  0.91657879    -0.19940
F805        F  0.11549827  0.81309985  0.97270213    -0.19620
F806        F  0.04424553  0.69171773  0.86527199    -0.19670
F807        F  0.01807139  0.69101156  0.91633893    -0.20000
F808        F  0.06514843  0.66902915  0.91210686    -0.22670
C809        C  0.25023027  0.58479435  0.07253090    -0.05510
C810        C  0.23127489  0.57580360  0.10154072     0.00420
C811        C  0.20708023  0.59600007  0.11195254    -0.08150
C812        C  0.20533853  0.62589411  0.09535203    -0.05530
C813        C  0.22532865  0.63515002  0.06740358     0.00410
C814        C  0.24719995  0.61379461  0.05479623    -0.08060
C815        C  0.26731743  0.62159417  0.02263395     0.62320
H816        H  0.26834249  0.56925623  0.06438057     0.13010
H817        H  0.18850925  0.64237165  0.10454947     0.13020
C818        C  0.18279482  0.58711294  0.14019925     0.62550
F819        F  0.28398496  0.59607531  0.01237748    -0.22620
F820        F  0.28883659  0.64592775  0.02867752    -0.19940
F821        F  0.24811105  0.63040385  0.99583851    -0.19620
F822        F  0.19270463  0.59931421  0.17097395    -0.19670
F823        F  0.17791056  0.55486173  0.14426934    -0.20000
F824        F  0.15394280  0.59943484  0.13213391    -0.22670
C825        C  0.22872162  0.91710005  0.06799532    -0.05510
C826        C  0.25765178  0.90195181  0.06743637     0.00420
C827        C  0.28446487  0.91648986  0.08266902    -0.08150
C828        C  0.28111435  0.94576251  0.09814624    -0.05530
C829        C  0.25197008  0.96048595  0.09908649     0.00410
C830        C  0.22518280  0.94585362  0.08402043    -0.08060
C831        C  0.19259885  0.95961163  0.08621380     0.62320
H832        H  0.20846420  0.90577433  0.05614097     0.13010
H833        H  0.30114734  0.95723151  0.11026059     0.13020
C834        C  0.31595970  0.90068010  0.08396669     0.62550
F835        F  0.16925638  0.93915829  0.07437139    -0.22620
F836        F  0.19205261  0.98714947  0.06637701    -0.19940
F837        F  0.18516164  0.96577798  0.12011072    -0.19620
F838        F  0.32825382  0.89858257  0.05093259    -0.19670
F839        F  0.31185619  0.87080277  0.09899086    -0.20000
F840        F  0.33784344  0.91735736  0.10308859    -0.22670
C841        C  0.02279123  0.77209697  0.73372016    -0.05510
C842        C  0.49773573  0.75738943  0.71636460     0.00420
C843        C  0.46984561  0.74764610  0.73522079    -0.08150
C844        C  0.47014938  0.74809910  0.77131187    -0.05530
C845        C  0.49524271  0.76253856  0.78880182     0.00410
C846        C  0.02111961  0.77677994  0.76937968    -0.08060
C847        C  0.04629333  0.79827205  0.78488704     0.62320
H848        H  0.04339999  0.78099835  0.71894481     0.13010
H849        H  0.44982363  0.73826668  0.78592095     0.13020
C850        C  0.43859080  0.73883320  0.71884667     0.62550
F851        F  0.05695377  0.82125673  0.76085987    -0.22620
F852        F  0.07173449  0.78097968  0.79488962    -0.19940
F853        F  0.03452973  0.81361729  0.81292722    -0.19620
F854        F  0.43309480  0.70663449  0.72203840    -0.19670
F855        F  0.43763826  0.74850021  0.68455172    -0.20000
F856        F  0.41434632  0.75334476  0.73567026    -0.22670
C857        C  0.21597454  0.52716685  0.73059553    -0.05510
C858        C  0.24420696  0.51663165  0.71584451     0.00420
C859        C  0.26889723  0.50782375  0.73855489    -0.08150
C860        C  0.26476175  0.51179917  0.77417972    -0.05530
C861        C  0.23621521  0.52116863  0.78853823     0.00410
C862        C  0.21085312  0.52785516  0.76650108    -0.08060
C863        C  0.17790511  0.53362908  0.78050527     0.62320
H864        H  0.19735086  0.53454567  0.71374618     0.13010
H865        H  0.28389157  0.50673800  0.79149917     0.13020
C866        C  0.29926770  0.49303848  0.72695561     0.62550
F867        F  0.15553899  0.53217386  0.75488363    -0.22620
F868        F  0.17708124  0.56301681  0.79441037    -0.19940
F869        F  0.16929018  0.01089927  0.80563109    -0.19620
F870        F  0.32161508  0.51629712  0.71698171    -0.19670
F871        F  0.29373639  0.47301242  0.70027639    -0.20000
F872        F  0.31193207  0.47523603  0.75350084    -0.22670
C873        C  0.27422945  0.52540586  0.26665329    -0.05510
C874        C  0.25045529  0.50697210  0.28460032     0.00420
C875        C  0.22756587  0.49002466  0.26515080    -0.08150
C876        C  0.22736662  0.49508015  0.22914919    -0.05530
C877        C  0.25089785  0.51369702  0.21156424     0.00410
C878        C  0.27560369  0.52797291  0.23037692    -0.08060
C879        C  0.30389034  0.54472469  0.21225335     0.62320
H880        H  0.29179274  0.53816472  0.28127765     0.13010
H881        H  0.20911558  0.48347754  0.21427267     0.13020
C882        C  0.20371995  0.46560078  0.28060403     0.62550
F883        F  0.32695082  0.55361071  0.23531805    -0.22620
F884        F  0.29462669  0.57147813  0.19466873    -0.19940
F885        F  0.31726295  0.02482029  0.18915752    -0.19620
F886        F  0.17471763  0.47900870  0.28459171    -0.19670
F887        F  0.21322360  0.95320434  0.31197437    -0.20000
F888        F  0.20008602  0.44066361  0.25879668    -0.22670
C889        C  0.47729800  0.74147599  0.27299820    -0.05510
C890        C  0.50157262  0.76098233  0.28594974     0.00420
C891        C  0.02319229  0.77716921  0.26259381    -0.08150
C892        C  0.01775711  0.77532185  0.22703685    -0.05530
C893        C  0.49338003  0.75580324  0.21427960     0.00410
C894        C  0.47429546  0.73684348  0.23765905    -0.08060
C895        C  0.45236503  0.70988358  0.22732980     0.62320
H896        H  0.46145866  0.72823380  0.29089215     0.13010
H897        H  0.03288148  0.78890269  0.20875474     0.13020
C898        C  0.05266390  0.79499564  0.27451756     0.62550
F899        F  0.45886820  0.68310232  0.24676467    -0.22620
F900        F  0.45600971  0.70273678  0.19314402    -0.19940
F901        F  0.42138458  0.71723423  0.23379086    -0.19620
F902        F  0.06733584  0.77767196  0.30001639    -0.19670
F903        F  0.04484044  0.82371063  0.28702974    -0.20000
F904        F  0.07434033  0.80062170  0.24768222    -0.22670
C905        C  0.47777351  0.82584417  0.59795126    -0.05510
C906        C  0.50616471  0.81087997  0.60159478     0.00420
C907        C  0.03465220  0.82607544  0.58940486    -0.08150
C908        C  0.03381946  0.85702374  0.57515229    -0.05530
C909        C  0.00530931  0.87296045  0.57257192     0.00410
C910        C  0.47648682  0.85635303  0.58339083    -0.08060
C911        C  0.44405281  0.86986338  0.57967292     0.62320
H912        H  0.45644741  0.81343118  0.60771445     0.13010
H913        H  0.05563253  0.86914402  0.56648170     0.13020
C914        C  0.06559289  0.80947846  0.59172058     0.62550
F915        F  0.41979051  0.84780764  0.58741822    -0.22620
F916        F  0.44028719  0.88022635  0.54593076    -0.19940
F917        F  0.44094561  0.89416304  0.60209532    -0.19620
F918        F  0.06324377  0.78178310  0.57409504    -0.19670
F919        F  0.07216300  0.80256753  0.62588406    -0.20000
F920        F  0.09060253  0.82775939  0.57748943    -0.22670
C921        C  0.46940926  0.63921688  0.60135461    -0.05510
C922        C  0.48602999  0.63709713  0.57027731     0.00420
C923        C  0.50481599  0.66308406  0.55739002    -0.08150
C924        C  0.50848791  0.68971880  0.57755146    -0.05530
C925        C  0.49163042  0.69261103  0.60888694     0.00410
C926        C  0.47065965  0.66688927  0.62035656    -0.08060
C927        C  0.44842964  0.66788309  0.65129642     0.62320
H928        H  0.45541203  0.61873293  0.61080121     0.13010
H929        H  0.52451884  0.70876499  0.56846326     0.13020
C930        C  0.51906318  0.66322818  0.52137394     0.62550
F931        F  0.42381197  0.64555592  0.64963476    -0.22620
F932        F  0.43505716  0.69682859  0.65219738    -0.19940
F933        F  0.96444540  0.66157802  0.68133314    -0.19620
F934        F  0.49474865  0.65890260  0.49852247    -0.19670
F935        F  0.03990830  0.63923599  0.51849264    -0.20000
F936        F  0.03505844  0.69143077  0.51245465    -0.22670
C937        C  0.48753431  0.87168444  0.40417507    -0.05510
C938        C  0.01181806  0.87788126  0.42794295     0.00420
C939        C  0.03260948  0.85333089  0.43643022    -0.08150
C940        C  0.02900480  0.82462565  0.41953373    -0.05530
C941        C  0.50453727  0.81895630  0.39628829     0.00410
C942        C  0.48238480  0.84226277  0.38990172    -0.08060
C943        C  0.45239961  0.83724501  0.36930665     0.62320
H944        H  0.47110206  0.88966922  0.39740043     0.13010
H945        H  0.04546809  0.80617693  0.42420873     0.13020
C946        C  0.05818254  0.85659866  0.46320037     0.62550
F947        F  0.42706500  0.84911500  0.38694526    -0.22620
F948        F  0.44487544  0.80588073  0.36405299    -0.19940
F949        F  0.45590572  0.85312705  0.33770634    -0.19620
F950        F  0.04470415  0.86325805  0.49464684    -0.19670
F951        F  0.07977912  0.88035020  0.45290299    -0.20000
F952        F  0.07455138  0.82927751  0.46780440    -0.22670
C953        C  0.46948444  0.68549798  0.39626729    -0.05510
C954        C  0.49885312  0.70177293  0.39792411     0.00420
C955        C  0.02438295  0.68772890  0.41450062    -0.08150
C956        C  0.01967395  0.65717992  0.42868281    -0.05530
C957        C  0.49034041  0.64056523  0.42700113     0.00410
C958        C  0.46471801  0.65484576  0.41049362    -0.08060
C959        C  0.43348520  0.63711062  0.40549844     0.62320
H960        H  0.45054043  0.69683007  0.38284904     0.13010
H961        H  0.03901727  0.64594714  0.44147788     0.13020
C962        C  0.05656871  0.70463372  0.41639131     0.62550
F963        F  0.41310435  0.65423566  0.38538984    -0.22620
F964        F  0.41868159  0.63022558  0.43701660    -0.19940
F965        F  0.43910249  0.60959054  0.38907667    -0.19620
F966        F  0.05410123  0.73152242  0.43509445    -0.19670
F967        F  0.06775225  0.71283754  0.38348149    -0.20000
F968        F  0.07853792  0.68600273  0.43226897    -0.22670
C969        C  0.18052366  0.52007050  0.58236430    -0.05510
C970        C  0.18876713  0.49530062  0.60457785     0.00420
C971        C  0.16913334  0.96744496  0.60688687    -0.08150
C972        C  0.14036391  0.96661000  0.58872520    -0.05530
C973        C  0.13150679  0.99224687  0.56768389     0.00410
C974        C  0.15307627  0.51861682  0.56279820    -0.08060
C975        C  0.14923091  0.54569593  0.53692258     0.62320
H976        H  0.19615636  0.54090546  0.57985443     0.13010
H977        H  0.12409617  0.94636546  0.59178948     0.13020
C978        C  0.17873196  0.93866951  0.62773467     0.62550
F979        F  0.14346436  0.57275143  0.55433056    -0.22620
F980        F  0.12525817  0.54019478  0.51415214    -0.19940
F981        F  0.17685881  0.55059013  0.51755068    -0.19620
F982        F  0.17785253  0.94452489  0.66251953    -0.19670
F983        F  0.20905247  0.93107165  0.61823215    -0.20000
F984        F  0.15871746  0.91283599  0.62232115    -0.22670
C985        C  0.31998384  0.54854458  0.59619085    -0.05510
C986        C  0.30530904  0.51874617  0.60325168     0.00420
C987        C  0.32088864  0.99140821  0.59395826    -0.08150
C988        C  0.35096133  0.99486776  0.57840645    -0.05530
C989        C  0.36623016  0.52448694  0.57171935     0.00410
C990        C  0.35019096  0.55201639  0.58002007    -0.08060
C991        C  0.36481226  0.58472618  0.57246134     0.62320
H992        H  0.30747421  0.56907707  0.60346930     0.13010
H993        H  0.36284111  0.97401502  0.57104388     0.13020
C994        C  0.30619107  0.95850344  0.60086715     0.62550
F995        F  0.34642180  0.60787849  0.58553452    -0.22620
F996        F  0.36775646  0.59015987  0.53718313    -0.19940
F997        F  0.39430275  0.58741198  0.58719562    -0.19620
F998        F  0.27983921  0.95412246  0.58076545    -0.19670
F999        F  0.29746163  0.95445426  0.63522540    -0.20000
F1000       F  0.32698989  0.93530772  0.59326824    -0.22670
C1001       C  0.17461230  0.97714639  0.39518027    -0.05510
C1002       C  0.19099242  0.50642896  0.39715964     0.00420
C1003       C  0.17787737  0.53048623  0.41633654    -0.08150
C1004       C  0.14846501  0.52428776  0.43287028    -0.05530
C1005       C  0.13164092  0.99524522  0.43042540     0.00410
C1006       C  0.14491515  0.97112346  0.41146173    -0.08060
C1007       C  0.12757345  0.93963996  0.40780295     0.62320
H1008       H  0.18526318  0.95907701  0.38038514     0.13010
H1009       H  0.13782128  0.54260273  0.44725446     0.13020
C1010       C  0.19399757  0.56295205  0.41805858     0.62550
F1011       F  0.14353862  0.92040174  0.38597325    -0.22620
F1012       F  0.09784039  0.94399904  0.39457655    -0.19940
F1013       F  0.12468545  0.92453601  0.43982629    -0.19620
F1014       F  0.20051914  0.57505297  0.38505760    -0.19670
F1015       F  0.22185724  0.56114249  0.43592595    -0.20000
F1016       F  0.17518017  0.58381820  0.43467864    -0.22670
C1017       C  0.34408239  0.50577720  0.44514610    -0.05510
C1018       C  0.36859169  0.52349525  0.42809668     0.00420
C1019       C  0.36394144  0.53541973  0.39413172    -0.08150
C1020       C  0.33392140  0.53150287  0.37972960    -0.05530
C1021       C  0.30959369  0.51258986  0.39596591     0.00410
C1022       C  0.31540971  0.49825369  0.42888332    -0.08060
C1023       C  0.29365937  0.47325136  0.44681608     0.62320
H1024       H  0.34849316  0.49547684  0.47050148     0.13010
H1025       H  0.32993720  0.54256106  0.35467308     0.13020
C1026       C  0.38972504  0.55104700  0.37109894     0.62550
F1027       F  0.31134503  0.95026127  0.46243883    -0.22620
F1028       F  0.27386613  0.95818141  0.42406633    -0.19940
F1029       F  0.27584283  0.48689173  0.47202904    -0.19620
F1030       F  0.39195599  0.53473561  0.34095119    -0.19670
F1031       F  0.41910008  0.55164723  0.38598331    -0.20000
F1032       F  0.38191566  0.58161448  0.36289613    -0.22670
O1033       O  0.91499398  0.49750913  0.43750866    -0.75020
O1034       O  0.91008558  0.04517392  0.46220906    -0.53930
C1035       C  0.89999523  0.02236510  0.44362383     0.78710
O1036       O  0.98294874  0.42322300  0.56521693    -0.59620
O1037       O  0.52999509  0.41581319  0.53808191    -0.52650
C1038       C  0.50632813  0.40616267  0.55779688     0.70720
O1039       O  0.91510743  0.50051241  0.56645592    -0.74180
O1040       O  0.90864200  0.04560136  0.53447245    -0.54740
C1041       C  0.89895424  0.02417355  0.55686985     0.76730
O1042       O  0.98802413  0.42600694  0.43746198    -0.59320
O1043       O  0.53444269  0.41820620  0.46419711    -0.52440
C1044       C  0.51194016  0.40935740  0.44428564     0.73320
Zr1045     Zr  0.96585671  0.47605706  0.44917271     2.54710
O1046       O  0.92499564  0.43502746  0.44179509    -0.79890
O1047       O  0.97260614  0.48333601  0.38693165    -0.93300
Zr1048     Zr  0.96349062  0.47510330  0.55125116     2.64680
O1049       O  0.91447772  0.44404144  0.54523622    -0.98260
O1050       O  0.96408762  0.47165562  0.61398752    -0.80320
O1051       O  0.94398471  0.49684003  0.49954903    -0.83680
O1052       O  0.98469591  0.45338817  0.50096585    -2.18390
O1053       O  0.58278601  0.01767940  0.43542396    -0.67070
O1054       O  0.58880872  0.47097014  0.46489299    -0.51630
C1055       C  0.59877426  0.49379133  0.44415404     0.71700
O1056       O  0.51126901  0.09024034  0.56142085    -0.59980
O1057       O  0.96407929  0.09723532  0.53487232    -0.51950
C1058       C  0.98695901  0.10620885  0.55429807     0.73510
O1059       O  0.58328706  0.01736135  0.56156868    -0.71370
O1060       O  0.58783521  0.46966915  0.53687914    -0.50050
C1061       C  0.59868906  0.49278662  0.55463057     0.74890
O1062       O  0.51290250  0.09171262  0.43451806    -0.66700
O1063       O  0.96549524  0.09853052  0.46136810    -0.53900
C1064       C  0.98890995  0.10798976  0.44154077     0.73270
Zr1065     Zr  0.53264888  0.04034355  0.44756509     2.77540
O1066       O  0.57397090  0.08176914  0.44057986    -0.97450
O1067       O  0.52739301  0.03559795  0.38554161    -0.78270
Zr1068     Zr  0.53186114  0.03911669  0.55019243     2.70070
O1069       O  0.57331001  0.07966487  0.55661329    -0.79520
O1070       O  0.52495044  0.03148171  0.61235274    -0.98600
Zr1071     Zr  0.95653185  0.05170853  0.49863616     2.21500
Zr1072     Zr  0.54071033  0.46338156  0.50110621     2.11130
O1073       O  0.55239985  0.01864406  0.49920860    -2.47290
O1074       O  0.51229086  0.06173898  0.49846759    -0.79310
O1075       O  0.52129958  0.48537025  0.44812922    -0.71510
O1076       O  0.97635208  0.02973221  0.55129699    -2.32460
O1077       O  0.97740112  0.03095943  0.44677220    -2.28670
O1078       O  0.51924068  0.48431168  0.55270692    -0.73270
H1079       H  0.97927637  0.43113581  0.50122608     0.78730
H1080       H  0.96699482  0.03911723  0.57115217     0.79820
H1081       H  0.57488173  0.02290923  0.49859319     0.82040
H1082       H  0.96853035  0.04078725  0.42652440     0.79650
H1083       H  0.96358330  0.49376265  0.62108708     0.42690
H1084       H  0.53536534  0.01156052  0.61793082     0.41660
H1085       H  0.57922493  0.08651904  0.53264350     0.41330
H1086       H  0.58954491  0.07694302  0.45858426     0.39270
H1087       H  0.53735027  0.01558121  0.38041166     0.42400
H1088       H  0.95613622  0.49804650  0.37999405     0.37180
H1089       H  0.91168030  0.43527216  0.46298748     0.43300
H1090       H  0.91867807  0.42942124  0.52659961     0.39720
H1091       H  0.58488370  0.07781011  0.41847543     0.44640
H1092       H  0.96537382  0.46291964  0.37768343     0.43360
H1093       H  0.91174679  0.43084608  0.56659373     0.43490
H1094       H  0.53897065  0.04799996  0.62208306     0.43850
C1095       C  0.00274260  0.23219923  0.37902921     0.03400
C1096       C  0.00405060  0.23274135  0.34300990    -0.12750
C1097       C  0.00460158  0.26135198  0.32396354     0.00900
C1098       C  0.00467565  0.28955821  0.34159667    -0.11270
C1099       C  0.00414246  0.28918148  0.37783467     0.03390
C1100       C  0.00289658  0.26038134  0.39646048    -0.10690
H1101       H  0.00365926  0.21068977  0.32977215     0.08990
H1102       H  0.00354753  0.31175426  0.32740953     0.06520
H1103       H  0.00124371  0.25991312  0.42438569     0.06370
C1104       C  0.72135013  0.01084208  0.37791480     0.03400
C1105       C  0.74993369  0.01184087  0.39550673    -0.12750
C1106       C  0.77881171  0.00949455  0.37768335     0.00900
C1107       C  0.77838606  0.00610005  0.34163640    -0.11270
C1108       C  0.75000412  0.00731510  0.32322847     0.03390
C1109       C  0.72163932  0.01055998  0.34182337    -0.10690
H1110       H  0.74952137  0.01360877  0.42319141     0.08990
H1111       H  0.80036496  0.00290361  0.32776127     0.06520
H1112       H  0.69951707  0.01213147  0.32846125     0.06370
C1113       C  0.71867654  0.99997362  0.62369333     0.03400
C1114       C  0.71827606  0.00282812  0.65964846    -0.12750
C1115       C  0.74550182  0.01345107  0.67725152     0.00900
C1116       C  0.77298510  0.02180693  0.65748557    -0.11270
C1117       C  0.77446294  0.01633371  0.62204126     0.03390
C1118       C  0.74703870  0.00643290  0.60516623    -0.10690
H1119       H  0.69627902  0.99784652  0.67366675     0.08990
H1120       H  0.79356585  0.03203200  0.66940403     0.06520
H1121       H  0.74767263  0.00405810  0.57743302     0.06370
C1122       C  0.99572348  0.22355846  0.62662180     0.03400
C1123       C  0.99880508  0.25201772  0.60656648    -0.12750
C1124       C  0.00501738  0.28090354  0.62201071     0.00900
C1125       C  0.00519523  0.28215857  0.65787631    -0.11270
C1126       C  0.00077576  0.25473204  0.67845523     0.03390
C1127       C  0.99812346  0.22539880  0.66278712    -0.10690
H1128       H  0.99617666  0.25195492  0.57884519     0.08990
H1129       H  0.00754606  0.30479439  0.66982485     0.06520
H1130       H  0.99815780  0.20445945  0.67905991     0.06370
C1131       C  0.74961735  0.48979309  0.11847817     0.03400
C1132       C  0.75308446  0.48880471  0.15435563    -0.12750
C1133       C  0.74966487  0.01595332  0.17336603     0.00900
C1134       C  0.74244013  0.04430368  0.15618357    -0.11270
C1135       C  0.73842311  0.04566186  0.12020754     0.03390
C1136       C  0.74290052  0.01833464  0.10154444    -0.10690
H1137       H  0.75788621  0.46671189  0.16761384     0.08990
H1138       H  0.73961261  0.06515890  0.17090734     0.06520
H1139       H  0.74083166  0.01916253  0.07374753     0.06370
O1140       O  0.73380850  0.35592357  0.93660076    -0.75020
O1141       O  0.78122509  0.36352203  0.96286280    -0.53930
C1142       C  0.75841524  0.37288918  0.94394460     0.78710
O1143       O  0.65799086  0.27515196  0.06500298    -0.59620
O1144       O  0.64978632  0.22886156  0.03804085    -0.52650
C1145       C  0.64117595  0.25027001  0.05859532     0.70720
O1146       O  0.73241134  0.35241490  0.06165132    -0.74180
O1147       O  0.77977891  0.36164796  0.03354723    -0.54740
C1148       C  0.75709642  0.36983696  0.05347994     0.76730
O1149       O  0.65813780  0.28073092  0.93676029    -0.59320
O1150       O  0.64896250  0.23373895  0.96600768    -0.52440
C1151       C  0.64042878  0.25654336  0.94588725     0.73320
Zr1152     Zr  0.70972268  0.30421393  0.94913981     2.54710
O1153       O  0.67392100  0.34732633  0.95222423    -0.79890
O1154       O  0.71060445  0.30425872  0.88639352    -0.93300
Zr1155     Zr  0.70928215  0.30066816  0.05115452     2.64680
O1156       O  0.67055582  0.34138529  0.05466694    -0.98260
O1157       O  0.71378946  0.29518877  0.11353895    -0.80320
O1158       O  0.73144344  0.32421397  0.99985161    -0.83680
O1159       O  0.68705472  0.28094482  0.00045004    -2.18390
O1160       O  0.74542304  0.19228898  0.93110929    -0.67070
O1161       O  0.69880646  0.18266842  0.96043501    -0.51630
C1162       C  0.71994911  0.17564964  0.93793973     0.71700
O1163       O  0.82566384  0.26147938  0.05719561    -0.59980
O1164       O  0.83131109  0.31220044  0.03726852    -0.51950
C1165       C  0.84147601  0.28794321  0.05368579     0.73510
O1166       O  0.75068439  0.18490723  0.06149628    -0.71370
O1167       O  0.70292423  0.17771685  0.03551609    -0.50050
C1168       C  0.72590307  0.16815620  0.05417684     0.74890
O1169       O  0.82643300  0.26132629  0.93884578    -0.66700
O1170       O  0.83344042  0.30954795  0.96237405    -0.53900
C1171       C  0.84314691  0.28614292  0.94539467     0.73270
Zr1172     Zr  0.77285896  0.24062498  0.94751974     2.77540
O1173       O  0.80914016  0.19802699  0.94156406    -0.97450
O1174       O  0.77263529  0.25100431  0.88544157    -0.78270
Zr1175     Zr  0.77307532  0.23774264  0.04972328     2.70070
O1176       O  0.81325737  0.19994831  0.06263805    -0.79520
O1177       O  0.76600046  0.24397013  0.11146744    -0.98600
Zr1178     Zr  0.78644362  0.31556773  0.99860828     2.21500
Zr1179     Zr  0.69624005  0.22592313  0.00017745     2.11130
O1180       O  0.75156678  0.21667779  0.99890903    -2.47290
O1181       O  0.79550273  0.26059037  0.99818449    -0.79310
O1182       O  0.71809188  0.24958526  0.94772963    -0.71510
O1183       O  0.76427172  0.29220412  0.05115806    -2.32460
O1184       O  0.76460272  0.29543011  0.94668929    -2.28670
O1185       O  0.71803812  0.24594561  0.05208590    -0.73270
H1186       H  0.66476888  0.28483213  0.00103485     0.78730
H1187       H  0.77397789  0.30131626  0.07107005     0.79820
H1188       H  0.75532334  0.19451310  0.99803803     0.82040
H1189       H  0.77447192  0.30577380  0.92648975     0.79650
H1190       H  0.73058216  0.31087077  0.11942951     0.42690
H1191       H  0.74970897  0.22760344  0.11865969     0.41660
H1192       H  0.82559394  0.19882555  0.04083351     0.41330
H1193       H  0.80010855  0.18018951  0.95609188     0.39270
H1194       H  0.75005079  0.25311531  0.87994835     0.42400
H1195       H  0.73097927  0.31509212  0.87948862     0.37180
H1196       H  0.67357366  0.35269540  0.97685850     0.43300
H1197       H  0.65170716  0.33314992  0.04256875     0.39720
H1198       H  0.80705996  0.19123679  0.91754254     0.44640
H1199       H  0.69439393  0.31928200  0.87950554     0.43360
H1200       H  0.66402641  0.34140937  0.07926734     0.43490
H1201       H  0.78580472  0.23654040  0.12159334     0.43850
C1202       C  0.96007474  0.26925058  0.12475162     0.03400
C1203       C  0.96279450  0.26812482  0.16090349    -0.12750
C1204       C  0.98946688  0.25583367  0.17645822     0.00900
C1205       C  0.51430582  0.24634115  0.15586871    -0.11270
C1206       C  0.51487243  0.25225645  0.12000955     0.03390
C1207       C  0.98718606  0.26318551  0.10445078    -0.10690
H1208       H  0.94451344  0.27723786  0.17702126     0.08990
H1209       H  0.53470060  0.23673596  0.16839045     0.06520
H1210       H  0.98673225  0.26762190  0.07698433     0.06370
C1211       C  0.74209494  0.49681325  0.88305547     0.03400
C1212       C  0.74071693  0.49554964  0.84706163    -0.12750
C1213       C  0.73386966  0.02219537  0.82679930     0.00900
C1214       C  0.72779185  0.05028162  0.84298945    -0.11270
C1215       C  0.72882202  0.05248567  0.87918755     0.03390
C1216       C  0.73693574  0.02554855  0.89900224    -0.10690
H1217       H  0.74509403  0.47363367  0.83468456     0.08990
H1218       H  0.72338110  0.07091284  0.82706982     0.06520
H1219       H  0.73993481  0.02688283  0.92648648     0.06370
C1220       C  0.96464310  0.27416705  0.88007730     0.03400
C1221       C  0.96563130  0.27189123  0.84401947    -0.12750
C1222       C  0.99325525  0.26265461  0.82706091     0.00900
C1223       C  0.51901113  0.25347070  0.84673972    -0.11270
C1224       C  0.51834398  0.25578709  0.88257269     0.03390
C1225       C  0.99143081  0.26658232  0.89898701    -0.10690
H1226       H  0.94504156  0.27741354  0.82917613     0.08990
H1227       H  0.54016054  0.24579356  0.83409395     0.06520
H1228       H  0.99149638  0.26933077  0.92667601     0.06370
C1229       C  0.73740512  0.11073182  0.87732557    -0.05510
C1230       C  0.72367474  0.08388831  0.89478285     0.00420
C1231       C  0.70381765  0.08855046  0.92412343    -0.08150
C1232       C  0.70187497  0.11912443  0.93690382    -0.05530
C1233       C  0.71642962  0.14550140  0.91964115     0.00410
C1234       C  0.73173169  0.14131440  0.88746724    -0.08060
C1235       C  0.74135899  0.16835137  0.86245750     0.62320
H1236       H  0.75211186  0.10800783  0.85459626     0.13010
H1237       H  0.68959199  0.12235521  0.96116745     0.13020
C1238       C  0.68457078  0.06217676  0.94259251     0.62550
F1239       F  0.73562324  0.15979038  0.82893804    -0.22620
F1240       F  0.77325444  0.17575081  0.86540277    -0.19940
F1241       F  0.72418868  0.19471905  0.86821087    -0.19620
F1242       F  0.70322628  0.04729421  0.96648890    -0.19670
F1243       F  0.67279742  0.04097435  0.91931979    -0.20000
F1244       F  0.65890554  0.07363689  0.96005206    -0.22670
C1245       C  0.72936135  0.42113827  0.93722939    -0.05510
C1246       C  0.75782571  0.40619056  0.93150346     0.00420
C1247       C  0.78222109  0.42204005  0.91160938    -0.08150
C1248       C  0.77700776  0.45265653  0.89804566    -0.05530
C1249       C  0.74803513  0.46724519  0.90317589     0.00410
C1250       C  0.72362704  0.45092704  0.92272306    -0.08060
C1251       C  0.69118641  0.46418833  0.92762037     0.62320
H1252       H  0.71101822  0.40868412  0.95269793     0.13010
H1253       H  0.79506751  0.46501965  0.88212631     0.13020
C1254       C  0.81262056  0.40601608  0.90318324     0.62550
F1255       F  0.66949302  0.44194194  0.94173677    -0.22620
F1256       F  0.67957956  0.47470332  0.89633966    -0.19940
F1257       F  0.69348451  0.48869073  0.94983113    -0.19620
F1258       F  0.80571276  0.37797913  0.88731772    -0.19670
F1259       F  0.82884232  0.39990350  0.93315887    -0.20000
F1260       F  0.83222678  0.42452819  0.88119018    -0.22670
C1261       C  0.92927283  0.29801098  0.07954169    -0.05510
C1262       C  0.92920640  0.27696633  0.10838322     0.00420
C1263       C  0.89986352  0.26216606  0.11944477    -0.08150
C1264       C  0.87219513  0.27054583  0.10284826    -0.05530
C1265       C  0.87234043  0.28906457  0.07216417     0.00410
C1266       C  0.90183268  0.30322903  0.06005840    -0.08060
C1267       C  0.90730193  0.32260259  0.02672045     0.62320
H1268       H  0.95151091  0.30942664  0.07095031     0.13010
H1269       H  0.84978418  0.26069323  0.11296591     0.13020
C1270       C  0.89701914  0.23533530  0.14634136     0.62550
F1271       F  0.93053136  0.30918533  0.00720818    -0.22620
F1272       F  0.88108444  0.32470963  0.00654807    -0.19940
F1273       F  0.91760616  0.35275553  0.03448207    -0.19620
F1274       F  0.89784554  0.24708239  0.17902553    -0.19670
F1275       F  0.92104512  0.21483142  0.14161272    -0.20000
F1276       F  0.86881169  0.21795634  0.14378811    -0.22670
C1277       C  0.57246492  0.26365027  0.11921589    -0.05510
C1278       C  0.54631765  0.25094888  0.10163468     0.00420
C1279       C  0.55197675  0.23560530  0.07018879    -0.08150
C1280       C  0.58343220  0.23501966  0.05718493    -0.05530
C1281       C  0.60928403  0.24748135  0.07544344     0.00410
C1282       C  0.60365859  0.26021495  0.10814661    -0.08060
C1283       C  0.63009516  0.26954946  0.13236842     0.62320
H1284       H  0.56843828  0.27597837  0.14277365     0.13010
H1285       H  0.58791315  0.22541337  0.03214995     0.13020
C1286       C  0.52563721  0.22009157  0.04988842     0.62550
F1287       F  0.61938317  0.26904285  0.16632166    -0.22440
F1288       F  0.64165950  0.29966047  0.12378634    -0.19940
F1289       F  0.65431053  0.24871763  0.13062075    -0.19620
F1290       F  0.51032581  0.24270151  0.03083426    -0.19670
F1291       F  0.00422423  0.20372855  0.07179539    -0.20000
F1292       F  0.53740201  0.19886919  0.02715575    -0.22670
C1293       C  0.88605816  0.30864454  0.90675912    -0.05510
C1294       C  0.87611132  0.28659405  0.93272325     0.00420
C1295       C  0.89670295  0.26296699  0.94370294    -0.08150
C1296       C  0.92551476  0.26050346  0.92612340    -0.05530
C1297       C  0.93506875  0.28143258  0.89887712     0.00410
C1298       C  0.91578749  0.30705780  0.89016013    -0.08060
C1299       C  0.92534125  0.33275919  0.86352905     0.62320
H1300       H  0.87013238  0.32677562  0.89886435     0.13010
H1301       H  0.94031424  0.24108326  0.93272301     0.13020
C1302       C  0.88823750  0.23976581  0.97334996     0.62550
F1303       F  0.91435828  0.36133653  0.87353592    -0.22620
F1304       F  0.91222630  0.32566956  0.83217773    -0.19940
F1305       F  0.95782860  0.33638184  0.85965831    -0.19620
F1306       F  0.87660715  0.25544764  0.00104603    -0.19670
F1307       F  0.86570689  0.21789938  0.96311440    -0.20000
F1308       F  0.91426459  0.22374965  0.98441045    -0.22670
C1309       C  0.56115367  0.28216072  0.91271176    -0.05510
C1310       C  0.54789362  0.25376654  0.90185771     0.00420
C1311       C  0.56324415  0.22538761  0.90865957    -0.08150
C1312       C  0.59326877  0.22690607  0.92392690    -0.05530
C1313       C  0.60766383  0.25585668  0.93275569     0.00410
C1314       C  0.59041991  0.28381190  0.92874314    -0.08060
C1315       C  0.60249313  0.31576976  0.94030170     0.62320
H1316       H  0.54860474  0.30347821  0.90749218     0.13010
H1317       H  0.60603838  0.20561198  0.92818613     0.13020
C1318       C  0.54760674  0.19390038  0.90048415     0.62550
F1319       F  0.57846645  0.33682788  0.94238273    -0.22620
F1320       F  0.62472843  0.32811248  0.91657879    -0.19940
F1321       F  0.61549825  0.31309986  0.97270213    -0.19620
F1322       F  0.54424554  0.19171775  0.86527195    -0.19670
F1323       F  0.51807140  0.19101158  0.91633888    -0.20000
F1324       F  0.56514843  0.16902917  0.91210682    -0.22670
C1325       C  0.75023027  0.08479434  0.07253095    -0.05510
C1326       C  0.73127488  0.07580359  0.10154077     0.00420
C1327       C  0.70708021  0.09600007  0.11195255    -0.08150
C1328       C  0.70533852  0.12589411  0.09535204    -0.05530
C1329       C  0.72532864  0.13515002  0.06740359     0.00410
C1330       C  0.74719995  0.11379461  0.05479626    -0.08060
C1331       C  0.76731744  0.12159415  0.02263398     0.62320
H1332       H  0.76834249  0.06925622  0.06438063     0.13010
H1333       H  0.68850923  0.14237164  0.10454946     0.13020
C1334       C  0.68279476  0.08711294  0.14019924     0.62550
F1335       F  0.78398497  0.09607529  0.01237752    -0.22620
F1336       F  0.78883659  0.14592774  0.02867755    -0.19940
F1337       F  0.74811106  0.13040383  0.99583854    -0.19620
F1338       F  0.69270455  0.09931420  0.17097395    -0.19670
F1339       F  0.67791049  0.05486173  0.14426931    -0.20000
F1340       F  0.65394276  0.09943485  0.13213386    -0.22670
C1341       C  0.72872163  0.41710007  0.06799532    -0.05510
C1342       C  0.75765179  0.40195183  0.06743637     0.00420
C1343       C  0.78446488  0.41648987  0.08266902    -0.08150
C1344       C  0.78111437  0.44576252  0.09814625    -0.05530
C1345       C  0.75197009  0.46048595  0.09908652     0.00410
C1346       C  0.72518282  0.44585363  0.08402044    -0.08060
C1347       C  0.69259886  0.45961164  0.08621382     0.62320
H1348       H  0.70846422  0.40577435  0.05614097     0.13010
H1349       H  0.80114736  0.45723151  0.11026061     0.13020
C1350       C  0.81595971  0.40068011  0.08396668     0.62550
F1351       F  0.66925639  0.43915829  0.07437142    -0.22620
F1352       F  0.69205261  0.48714947  0.06637701    -0.19940
F1353       F  0.68516165  0.46577800  0.12011073    -0.19620
F1354       F  0.82825383  0.39858258  0.05093258    -0.19670
F1355       F  0.81185620  0.37080278  0.09899086    -0.20000
F1356       F  0.83784346  0.41735737  0.10308859    -0.22670
C1357       C  0.52279126  0.27209700  0.73372009    -0.05510
C1358       C  0.99773569  0.25738961  0.71636442     0.00420
C1359       C  0.96984560  0.24764623  0.73522064    -0.08150
C1360       C  0.97014940  0.24809917  0.77131173    -0.05530
C1361       C  0.99524274  0.26253861  0.78880169     0.00410
C1362       C  0.52111963  0.27677997  0.76937961    -0.08060
C1363       C  0.54629335  0.29827208  0.78488697     0.62320
H1364       H  0.54340003  0.28099836  0.71894474     0.13010
H1365       H  0.94982367  0.23826673  0.78592081     0.13020
C1366       C  0.93859077  0.23883335  0.71884655     0.62550
F1367       F  0.55695381  0.32125675  0.76085980    -0.22620
F1368       F  0.57173452  0.28097970  0.79488956    -0.19940
F1369       F  0.53452976  0.31361733  0.81292715    -0.19620
F1370       F  0.93309475  0.20663464  0.72203828    -0.19670
F1371       F  0.93763820  0.24850038  0.68455161    -0.20000
F1372       F  0.91434631  0.25334492  0.73567018    -0.22670
C1373       C  0.71597424  0.02716632  0.73059579    -0.05510
C1374       C  0.74420663  0.01663107  0.71584481     0.00420
C1375       C  0.76889703  0.00782345  0.73855514    -0.08150
C1376       C  0.76476163  0.01179909  0.77417993    -0.05530
C1377       C  0.73621508  0.02116855  0.78853844     0.00410
C1378       C  0.71085293  0.02785491  0.76650133    -0.08060
C1379       C  0.67790496  0.03362895  0.78050556     0.62320
H1380       H  0.69735050  0.03454495  0.71374641     0.13010
H1381       H  0.78389151  0.00673808  0.79149937     0.13020
C1382       C  0.79926756  0.99303829  0.72695586     0.62550
F1383       F  0.65553878  0.03217370  0.75488399    -0.22620
F1384       F  0.67708119  0.06301673  0.79441056    -0.19940
F1385       F  0.66929038  0.51089933  0.80563060    -0.19620
F1386       F  0.82161480  0.01629701  0.71698180    -0.19670
F1387       F  0.79373631  0.97301209  0.70027673    -0.20000
F1388       F  0.81193206  0.97523601  0.75350114    -0.22670
C1389       C  0.77422867  0.02540599  0.26665360    -0.05510
C1390       C  0.75045442  0.00697224  0.28460051     0.00420
C1391       C  0.72756521  0.99002468  0.26515085    -0.08150
C1392       C  0.72736619  0.99508008  0.22914922    -0.05530
C1393       C  0.75089748  0.01369697  0.21156438     0.00410
C1394       C  0.77560316  0.02797294  0.23037722    -0.08060
C1395       C  0.80388993  0.04472466  0.21225380     0.62320
H1396       H  0.79179184  0.03816493  0.28127804     0.13010
H1397       H  0.70911527  0.98347739  0.21427258     0.13020
C1398       C  0.70371931  0.96560073  0.28060399     0.62550
F1399       F  0.82695029  0.05361069  0.23531864    -0.22620
F1400       F  0.79462642  0.07147808  0.19466904    -0.19940
F1401       F  0.81726315  0.52482034  0.18915715    -0.19620
F1402       F  0.67471697  0.97900858  0.28459165    -0.19670
F1403       F  0.71322417  0.45320439  0.31197458    -0.20000
F1404       F  0.70008547  0.94066358  0.25879659    -0.22670
C1405       C  0.97729791  0.24147627  0.27299842    -0.05510
C1406       C  0.00157254  0.26098261  0.28594998     0.00420
C1407       C  0.52319229  0.27716929  0.26259394    -0.08150
C1408       C  0.51775710  0.27532194  0.22703698    -0.05530
C1409       C  0.99338002  0.25580340  0.21427979     0.00410
C1410       C  0.97429541  0.23684370  0.23765926    -0.08060
C1411       C  0.95236499  0.20988377  0.22733004     0.62320
H1412       H  0.96145853  0.22823412  0.29089237     0.13010
H1413       H  0.53288149  0.28890276  0.20875486     0.13020
C1414       C  0.55266394  0.29499569  0.27451767     0.62550
F1415       F  0.95886818  0.18310253  0.24676493    -0.22620
F1416       F  0.95600967  0.20273695  0.19314427    -0.19940
F1417       F  0.92138453  0.21723440  0.23379109    -0.19620
F1418       F  0.56733583  0.27767204  0.30001655    -0.19670
F1419       F  0.54484052  0.32371073  0.28702976    -0.20000
F1420       F  0.57434039  0.30062165  0.24768233    -0.22670
C1421       C  0.97777408  0.32584454  0.59795086    -0.05510
C1422       C  0.00616516  0.31088016  0.60159450     0.00420
C1423       C  0.53465244  0.32607530  0.58940477    -0.08150
C1424       C  0.53381976  0.35702359  0.57515216    -0.05530
C1425       C  0.50530962  0.37296032  0.57257171     0.00410
C1426       C  0.97648758  0.35635338  0.58339029    -0.08060
C1427       C  0.94405361  0.36986384  0.57967232     0.62320
H1428       H  0.95644790  0.31343169  0.60771406     0.13010
H1429       H  0.55563285  0.36914385  0.56648159     0.13020
C1430       C  0.56559312  0.30947830  0.59172055     0.62550
F1431       F  0.91979122  0.34780821  0.58741769    -0.22620
F1432       F  0.94028804  0.38022671  0.54593013    -0.19940
F1433       F  0.94094647  0.39416359  0.60209463    -0.19620
F1434       F  0.56324398  0.28178292  0.57409505    -0.19670
F1435       F  0.57216319  0.30256741  0.62588405    -0.20000
F1436       F  0.59060279  0.32775919  0.57748941    -0.22670
C1437       C  0.96940877  0.13921710  0.60135428    -0.05510
C1438       C  0.98602944  0.13709733  0.57027695     0.00420
C1439       C  0.00481559  0.16308419  0.55738974    -0.08150
C1440       C  0.00848763  0.18971889  0.57755121    -0.05530
C1441       C  0.99163017  0.19261117  0.60888671     0.00410
C1442       C  0.97065934  0.16688944  0.62035633    -0.08060
C1443       C  0.94842948  0.16788323  0.65129631     0.62320
H1444       H  0.95541148  0.11873318  0.61080085     0.13010
H1445       H  0.02451864  0.20876502  0.56846304     0.13020
C1446       C  0.01906281  0.16322829  0.52137367     0.62550
F1447       F  0.92381178  0.14555608  0.64963477    -0.22620
F1448       F  0.93505702  0.19682874  0.65219740    -0.19940
F1449       F  0.46444529  0.16157811  0.68133303    -0.19620
F1450       F  0.99474829  0.15890280  0.49852217    -0.19670
F1451       F  0.53990752  0.13923573  0.51849255    -0.20000
F1452       F  0.53505816  0.19143058  0.51245461    -0.22670
C1453       C  0.98753540  0.37168499  0.40417543    -0.05510
C1454       C  0.51181878  0.37788142  0.42794291     0.00420
C1455       C  0.53261007  0.35333094  0.43643025    -0.08150
C1456       C  0.52900521  0.32462566  0.41953384    -0.05530
C1457       C  0.00453787  0.31895664  0.39628866     0.00410
C1458       C  0.98238557  0.34226330  0.38990216    -0.08060
C1459       C  0.95240026  0.33724570  0.36930723     0.62320
H1460       H  0.97110325  0.38966987  0.39740082     0.13010
H1461       H  0.54546840  0.30617686  0.42420888     0.13020
C1462       C  0.55818315  0.35659865  0.46320037     0.62550
F1463       F  0.92706580  0.34911586  0.38694594    -0.22620
F1464       F  0.94487586  0.30588145  0.36405363    -0.19940
F1465       F  0.95590633  0.35312769  0.33770688    -0.19620
F1466       F  0.54470480  0.36325810  0.49464684    -0.19670
F1467       F  0.57977980  0.38035012  0.45290297    -0.20000
F1468       F  0.57455190  0.32927744  0.46780441    -0.22670
C1469       C  0.96948395  0.18549828  0.39626735    -0.05510
C1470       C  0.99885271  0.20177310  0.39792430     0.00420
C1471       C  0.52438220  0.18772861  0.41450072    -0.08150
C1472       C  0.51967285  0.15717959  0.42868277    -0.05530
C1473       C  0.99033967  0.14056523  0.42700089     0.00410
C1474       C  0.96471737  0.15484598  0.41049345    -0.08060
C1475       C  0.93348450  0.13711099  0.40549811     0.62320
H1476       H  0.95054001  0.19683052  0.38284916     0.13010
H1477       H  0.53901603  0.14594650  0.44147777     0.13020
C1478       C  0.55656812  0.20463311  0.41639154     0.62550
F1479       F  0.91310372  0.15423625  0.38538965    -0.22620
F1480       F  0.91868086  0.13022578  0.43701622    -0.19940
F1481       F  0.93910167  0.10959099  0.38907611    -0.19620
F1482       F  0.55410087  0.23152181  0.43509475    -0.19670
F1483       F  0.56775180  0.21283692  0.38348177    -0.20000
F1484       F  0.57853710  0.18600186  0.43226921    -0.22670
C1485       C  0.68052354  0.02007181  0.58236648    -0.05510
C1486       C  0.68876647  0.99530068  0.60457835     0.00420
C1487       C  0.66913389  0.46744493  0.60688784    -0.08150
C1488       C  0.64036404  0.46660935  0.58872699    -0.05530
C1489       C  0.63150657  0.49224553  0.56768489     0.00410
C1490       C  0.65307688  0.01861947  0.56279917    -0.08060
C1491       C  0.64923383  0.04570038  0.53692563     0.62320
H1492       H  0.69615646  0.04090677  0.57985861     0.13010
H1493       H  0.62409630  0.44636491  0.59179245     0.13020
C1494       C  0.67873307  0.43866995  0.62773611     0.62550
F1495       F  0.64346624  0.07275468  0.55433515    -0.22620
F1496       F  0.62526323  0.04020139  0.51415310    -0.19940
F1497       F  0.67686270  0.05059537  0.51755577    -0.19620
F1498       F  0.67785373  0.44452579  0.66252086    -0.19670
F1499       F  0.70905366  0.43107239  0.61823355    -0.20000
F1500       F  0.65871893  0.41283605  0.62232315    -0.22670
C1501       C  0.81998314  0.04854409  0.59619111    -0.05510
C1502       C  0.80530845  0.01874560  0.60325187     0.00420
C1503       C  0.82088931  0.49140861  0.59395799    -0.08150
C1504       C  0.85096212  0.49486803  0.57840631    -0.05530
C1505       C  0.86622959  0.02448673  0.57171953     0.00410
C1506       C  0.85019026  0.05201607  0.58002033    -0.08060
C1507       C  0.86481146  0.08472593  0.57246171     0.62320
H1508       H  0.80747343  0.06907651  0.60346964     0.13010
H1509       H  0.86284187  0.47401522  0.57104390     0.13020
C1510       C  0.80619157  0.45850391  0.60086685     0.62550
F1511       F  0.84642093  0.10787813  0.58553498    -0.22620
F1512       F  0.86775564  0.09015972  0.53718351    -0.19940
F1513       F  0.89430196  0.08741177  0.58719597    -0.19620
F1514       F  0.77983971  0.45412307  0.58076511    -0.19670
F1515       F  0.79746205  0.45445477  0.63522509    -0.20000
F1516       F  0.82699028  0.43530808  0.59326798    -0.22670
C1517       C  0.67461319  0.47714642  0.39518058    -0.05510
C1518       C  0.69099101  0.00642898  0.39715982     0.00420
C1519       C  0.67787578  0.03048632  0.41633650    -0.08150
C1520       C  0.64846313  0.02428801  0.43286987    -0.05530
C1521       C  0.63164200  0.49524532  0.43042600     0.00410
C1522       C  0.64491605  0.47112357  0.41146214    -0.08060
C1523       C  0.62757417  0.43964019  0.40780317     0.62320
H1524       H  0.68526395  0.45907702  0.38038537     0.13010
H1525       H  0.63781926  0.04260306  0.44725377     0.13020
C1526       C  0.69399616  0.06295204  0.41805876     0.62550
F1527       F  0.64353918  0.42040200  0.38597330    -0.22620
F1528       F  0.59784112  0.44399952  0.39457687    -0.19940
F1529       F  0.62468614  0.42453605  0.43982642    -0.19620
F1530       F  0.70051803  0.07505301  0.38505785    -0.19670
F1531       F  0.72185570  0.06114225  0.43592634    -0.20000
F1532       F  0.67517880  0.08381827  0.43467875    -0.22670
C1533       C  0.84408138  0.00577703  0.44514624    -0.05510
C1534       C  0.86859067  0.02349513  0.42809687     0.00420
C1535       C  0.86394038  0.03541974  0.39413197    -0.08150
C1536       C  0.83392030  0.03150295  0.37972989    -0.05530
C1537       C  0.80959256  0.01258994  0.39596619     0.00410
C1538       C  0.81540865  0.99825362  0.42888350    -0.08060
C1539       C  0.79365835  0.97325121  0.44681614     0.62320
H1540       H  0.84849218  0.99547657  0.47050157     0.13010
H1541       H  0.82993607  0.04256123  0.35467342     0.13020
C1542       C  0.88972398  0.05104706  0.37109920     0.62550
F1543       F  0.81134614  0.45026150  0.46243914    -0.22620
F1544       F  0.77386736  0.45818151  0.42406647    -0.19940
F1545       F  0.77584180  0.98689145  0.47202918    -0.19620
F1546       F  0.89195503  0.03473562  0.34095149    -0.19670
F1547       F  0.91909899  0.05164742  0.38598364    -0.20000
F1548       F  0.88191453  0.08161450  0.36289632    -0.22670
O1549       O  0.91499458  0.99750929  0.43750841    -0.75020
O1550       O  0.91008532  0.54517408  0.46220877    -0.53930
C1551       C  0.89999494  0.52236519  0.44362373     0.78710
O1552       O  0.98294913  0.92322299  0.56521643    -0.59620
O1553       O  0.52999300  0.91581272  0.53808265    -0.52650
C1554       C  0.50632623  0.90616246  0.55779809     0.70720
O1555       O  0.91510756  0.00051207  0.56645572    -0.74180
O1556       O  0.90864183  0.54560149  0.53447226    -0.54740
C1557       C  0.89895418  0.52417389  0.55686989     0.76730
O1558       O  0.98802527  0.92600770  0.43746166    -0.59320
O1559       O  0.53443955  0.91820511  0.46419659    -0.52440
C1560       C  0.51193668  0.90935597  0.44428572     0.73320
Zr1561     Zr  0.96585777  0.97605780  0.44917235     2.54710
O1562       O  0.92499715  0.93502788  0.44179399    -0.79890
O1563       O  0.97260741  0.98333744  0.38693140    -0.93300
Zr1564     Zr  0.96349081  0.97510317  0.55125079     2.64680
O1565       O  0.91447808  0.94404120  0.54523505    -0.98260
O1566       O  0.96408745  0.97165516  0.61398714    -0.80320
O1567       O  0.94398506  0.99684013  0.49954867    -0.83680
O1568       O  0.98469672  0.95338862  0.50096546    -2.18390
O1569       O  0.58279088  0.51768038  0.43542679    -0.67070
O1570       O  0.58880524  0.97097017  0.46489201    -0.51630
C1571       C  0.59877023  0.99379114  0.44415230     0.71700
O1572       O  0.51127153  0.59023974  0.56142238    -0.59980
O1573       O  0.96407871  0.59723551  0.53487182    -0.51950
C1574       C  0.98695839  0.60620905  0.55429762     0.73510
O1575       O  0.58328536  0.51735397  0.56157795    -0.71370
O1576       O  0.58783535  0.96967427  0.53687471    -0.50050
C1577       C  0.59869081  0.99279378  0.55462275     0.74890
O1578       O  0.51290718  0.59171378  0.43452183    -0.66700
O1579       O  0.96549466  0.59853067  0.46136797    -0.53900
C1580       C  0.98890903  0.60798967  0.44154005     0.73270
Zr1581     Zr  0.53265407  0.54034562  0.44756825     2.77540
O1582       O  0.57397573  0.58177205  0.44058229    -0.97450
O1583       O  0.52740131  0.53560105  0.38554549    -0.78270
Zr1584     Zr  0.53186276  0.53911607  0.55019581     2.70070
O1585       O  0.57331201  0.57966455  0.55661716    -0.79520
O1586       O  0.52495196  0.53148406  0.61235521    -0.98600
Zr1587     Zr  0.95653137  0.55170851  0.49863584     2.21500
Zr1588     Zr  0.54070781  0.96338148  0.50110557     2.11130
O1589       O  0.55241743  0.51864752  0.49921213    -2.47290
O1590       O  0.51229406  0.56173917  0.49847073    -0.79310
O1591       O  0.52129511  0.98536793  0.44812823    -0.71510
O1592       O  0.97635160  0.52973247  0.55129678    -2.32460
O1593       O  0.97739951  0.53095879  0.44677170    -2.28670
O1594       O  0.51923928  0.98431191  0.55270670    -0.73270
H1595       H  0.97927734  0.93113653  0.50122551     0.78730
H1596       H  0.96699431  0.53911775  0.57115222     0.79820
H1597       H  0.57484813  0.52290751  0.49860966     0.82040
H1598       H  0.96852832  0.54078658  0.42652364     0.79650
H1599       H  0.96358403  0.99376221  0.62108681     0.42690
H1600       H  0.53536085  0.51155971  0.61793395     0.41660
H1601       H  0.57922683  0.58651969  0.53264784     0.41330
H1602       H  0.58955035  0.57694669  0.45858577     0.39270
H1603       H  0.53735490  0.51558232  0.38041594     0.42400
H1604       H  0.95613736  0.99804784  0.37999390     0.37180
H1605       H  0.91168173  0.93527216  0.46298636     0.43300
H1606       H  0.91867869  0.92942109  0.52659842     0.39720
H1607       H  0.58488780  0.57781281  0.41847725     0.44640
H1608       H  0.96537532  0.96292111  0.37768289     0.43360
H1609       H  0.91174695  0.93084575  0.56659247     0.43490
H1610       H  0.53897717  0.54799870  0.62208495     0.43850
C1611       C  0.00274252  0.73219950  0.37902947     0.03400
C1612       C  0.00405048  0.73274162  0.34301016    -0.12750
C1613       C  0.00460157  0.76135225  0.32396378     0.00900
C1614       C  0.00467581  0.78955850  0.34159692    -0.11270
C1615       C  0.00414270  0.78918178  0.37783494     0.03390
C1616       C  0.00289671  0.76038162  0.39646075    -0.10690
H1617       H  0.00365900  0.71069004  0.32977241     0.08990
H1618       H  0.00354777  0.81175455  0.32740978     0.06520
H1619       H  0.00124388  0.75991341  0.42438596     0.06370
C1620       C  0.72135169  0.51084225  0.37791332     0.03400
C1621       C  0.74993515  0.51184078  0.39550517    -0.12750
C1622       C  0.77881296  0.50949391  0.37768181     0.00900
C1623       C  0.77838730  0.50609930  0.34163492    -0.11270
C1624       C  0.75000535  0.50731469  0.32322708     0.03390
C1625       C  0.72164067  0.51056002  0.34182196    -0.10690
H1626       H  0.74952289  0.51360879  0.42318985     0.08990
H1627       H  0.80036615  0.50290262  0.32775978     0.06520
H1628       H  0.69951838  0.51213170  0.32845993     0.06370
C1629       C  0.71867655  0.49997684  0.62369235     0.03400
C1630       C  0.71827590  0.50283137  0.65964752    -0.12750
C1631       C  0.74550173  0.51345349  0.67725096     0.00900
C1632       C  0.77298522  0.52180894  0.65748522    -0.11270
C1633       C  0.77446302  0.51633605  0.62204082     0.03390
C1634       C  0.74703874  0.50643595  0.60516543    -0.10690
H1635       H  0.69627875  0.49784996  0.67366564     0.08990
H1636       H  0.79356615  0.53203338  0.66940388     0.06520
H1637       H  0.74767293  0.50406075  0.57743229     0.06370
C1638       C  0.99572342  0.72355856  0.62662160     0.03400
C1639       C  0.99880516  0.75201782  0.60656629    -0.12750
C1640       C  0.00501759  0.78090363  0.62201052     0.00900
C1641       C  0.00519539  0.78215866  0.65787612    -0.11270
C1642       C  0.00077578  0.75473215  0.67845505     0.03390
C1643       C  0.99812337  0.72539891  0.66278693    -0.10690
H1644       H  0.99617675  0.75195504  0.57884500     0.08990
H1645       H  0.00754629  0.80479448  0.66982466     0.06520
H1646       H  0.99815763  0.70445956  0.67905974     0.06370
C1647       C  0.74961727  0.98979301  0.11847906     0.03400
C1648       C  0.75308415  0.98880464  0.15435658    -0.12750
C1649       C  0.74966521  0.51595337  0.17336507     0.00900
C1650       C  0.74244029  0.54430370  0.15618274    -0.11270
C1651       C  0.73842304  0.54566187  0.12020677     0.03390
C1652       C  0.74290040  0.51833467  0.10154360    -0.10690
H1653       H  0.75788576  0.96671180  0.16761482     0.08990
H1654       H  0.73961280  0.56515890  0.17090656     0.06520
H1655       H  0.74083139  0.51916257  0.07374672     0.06370
O1656       O  0.73380860  0.85592365  0.93660079    -0.75020
O1657       O  0.78122516  0.86352212  0.96286289    -0.53930
C1658       C  0.75841532  0.87288926  0.94394468     0.78710
O1659       O  0.65799089  0.77515201  0.06500291    -0.59620
O1660       O  0.64978640  0.72886163  0.03804074    -0.52650
C1661       C  0.64117599  0.75027007  0.05859521     0.70720
O1662       O  0.73241133  0.85241501  0.06165144    -0.74180
O1663       O  0.77977892  0.86164808  0.03354741    -0.54740
C1664       C  0.75709642  0.86983707  0.05348013     0.76730
O1665       O  0.65813786  0.78073102  0.93676028    -0.59320
O1666       O  0.64896259  0.73373903  0.96600763    -0.52440
C1667       C  0.64042886  0.75654344  0.94588723     0.73320
Zr1668     Zr  0.70972275  0.80421403  0.94913981     2.54710
O1669       O  0.67392106  0.84732642  0.95222415    -0.79890
O1670       O  0.71060455  0.80425881  0.88639351    -0.93300
Zr1671     Zr  0.70928217  0.80066826  0.05115452     2.64680
O1672       O  0.67055582  0.84138537  0.05466691    -0.98260
O1673       O  0.71378942  0.79518881  0.11353895    -0.80320
O1674       O  0.73144349  0.82421407  0.99985163    -0.83680
O1675       O  0.68705478  0.78094493  0.00045002    -2.18390
O1676       O  0.74542313  0.69228905  0.93110928    -0.67070
O1677       O  0.69880654  0.68266850  0.96043498    -0.51630
C1678       C  0.71994921  0.67564971  0.93793971     0.71700
O1679       O  0.82566388  0.76147943  0.05719563    -0.59980
O1680       O  0.83131114  0.81220051  0.03726860    -0.51950
C1681       C  0.84147606  0.78794326  0.05368585     0.73510
O1682       O  0.75068439  0.68490734  0.06149621    -0.71370
O1683       O  0.70292426  0.67771699  0.03551597    -0.50050
C1684       C  0.72590308  0.66815633  0.05417672     0.74890
O1685       O  0.82643306  0.76132640  0.93884580    -0.66700
O1686       O  0.83344049  0.80954804  0.96237413    -0.53900
C1687       C  0.84314698  0.78614302  0.94539471     0.73270
Zr1688     Zr  0.77285903  0.74062509  0.94751974     2.77540
O1689       O  0.80914023  0.69802710  0.94156404    -0.97450
O1690       O  0.77263536  0.75100444  0.88544157    -0.78270
Zr1691     Zr  0.77307535  0.73774275  0.04972329     2.70070
O1692       O  0.81325737  0.69994839  0.06263811    -0.79520
O1693       O  0.76600045  0.74397020  0.11146745    -0.98600
Zr1694     Zr  0.78644368  0.81556785  0.99860837     2.21500
Zr1695     Zr  0.69624013  0.72592325  0.00017738     2.11130
O1696       O  0.75156685  0.71667790  0.99890902    -2.47290
O1697       O  0.79550277  0.76059048  0.99818452    -0.79310
O1698       O  0.71809195  0.74958536  0.94772956    -0.71510
O1699       O  0.76427174  0.79220422  0.05115811    -2.32460
O1700       O  0.76460280  0.79543023  0.94668935    -2.28670
O1701       O  0.71803815  0.74594571  0.05208586    -0.73270
H1702       H  0.66476894  0.78483223  0.00103481     0.78730
H1703       H  0.77397790  0.80131634  0.07107011     0.79820
H1704       H  0.75532342  0.69451321  0.99803801     0.82040
H1705       H  0.77447201  0.80577392  0.92648981     0.79650
H1706       H  0.73058215  0.81087077  0.11942955     0.42690
H1707       H  0.74970897  0.72760349  0.11865969     0.41660
H1708       H  0.82559397  0.69882563  0.04083359     0.41330
H1709       H  0.80010864  0.68018962  0.95609186     0.39270
H1710       H  0.75005085  0.75311533  0.87994834     0.42400
H1711       H  0.73097937  0.81509222  0.87948862     0.37180
H1712       H  0.67357367  0.85269548  0.97685842     0.43300
H1713       H  0.65170718  0.83314999  0.04256870     0.39720
H1714       H  0.80706002  0.69123690  0.91754252     0.44640
H1715       H  0.69439404  0.81928208  0.87950552     0.43360
H1716       H  0.66402639  0.84140944  0.07926730     0.43490
H1717       H  0.78580471  0.73654048  0.12159336     0.43850
C1718       C  0.96007476  0.76925062  0.12475176     0.03400
C1719       C  0.96279451  0.76812490  0.16090364    -0.12750
C1720       C  0.98946690  0.75583379  0.17645840     0.00900
C1721       C  0.51430577  0.74634086  0.15586820    -0.11270
C1722       C  0.51487239  0.75225634  0.12000909     0.03390
C1723       C  0.98718607  0.76318551  0.10445094    -0.10690
H1724       H  0.94451343  0.77723795  0.17702138     0.08990
H1725       H  0.53470055  0.73673560  0.16838988     0.06520
H1726       H  0.98673226  0.76762187  0.07698448     0.06370
C1727       C  0.74209495  0.99681327  0.88305565     0.03400
C1728       C  0.74071695  0.99554957  0.84706183    -0.12750
C1729       C  0.73386960  0.52219548  0.82679918     0.00900
C1730       C  0.72779181  0.55028169  0.84298942    -0.11270
C1731       C  0.72882205  0.55248568  0.87918752     0.03390
C1732       C  0.73693577  0.52554851  0.89900213    -0.10690
H1733       H  0.74509407  0.97363358  0.83468482     0.08990
H1734       H  0.72338105  0.57091294  0.82706985     0.06520
H1735       H  0.73993486  0.52688274  0.92648638     0.06370
C1736       C  0.96464309  0.77416704  0.88007720     0.03400
C1737       C  0.96563131  0.77189125  0.84401935    -0.12750
C1738       C  0.99325526  0.76265464  0.82706078     0.00900
C1739       C  0.51901109  0.75347062  0.84674001    -0.11270
C1740       C  0.51834396  0.75578706  0.88257296     0.03390
C1741       C  0.99143080  0.76658230  0.89898690    -0.10690
H1742       H  0.94504157  0.77741358  0.82917602     0.08990
H1743       H  0.54016049  0.74579347  0.83409423     0.06520
H1744       H  0.99149637  0.76933073  0.92667590     0.06370
C1745       C  0.73740523  0.61073183  0.87732560    -0.05510
C1746       C  0.72367483  0.58388833  0.89478287     0.00420
C1747       C  0.70381774  0.58855049  0.92412345    -0.08150
C1748       C  0.70187506  0.61912447  0.93690383    -0.05530
C1749       C  0.71642972  0.64550144  0.91964115     0.00410
C1750       C  0.73173180  0.64131442  0.88746726    -0.08060
C1751       C  0.74135908  0.66835138  0.86245750     0.62320
H1752       H  0.75211196  0.60800783  0.85459629     0.13010
H1753       H  0.68959207  0.62235526  0.96116745     0.13020
C1754       C  0.68457087  0.56217678  0.94259254     0.62550
F1755       F  0.73562333  0.65979037  0.82893804    -0.22620
F1756       F  0.77325453  0.67575083  0.86540275    -0.19940
F1757       F  0.72418876  0.69471905  0.86821085    -0.19620
F1758       F  0.70322641  0.54729417  0.96648885    -0.19670
F1759       F  0.67279745  0.54097442  0.91931980    -0.20000
F1760       F  0.65890569  0.57363691  0.96005217    -0.22670
C1761       C  0.72936140  0.92113831  0.93722954    -0.05510
C1762       C  0.75782578  0.90619063  0.93150358     0.00420
C1763       C  0.78222115  0.92204013  0.91160950    -0.08150
C1764       C  0.77700782  0.95265662  0.89804585    -0.05530
C1765       C  0.74803517  0.96724525  0.90317611     0.00410
C1766       C  0.72362708  0.95092708  0.92272323    -0.08060
C1767       C  0.69118643  0.96418834  0.92762051     0.62320
H1768       H  0.71101828  0.90868414  0.95269807     0.13010
H1769       H  0.79506755  0.96501976  0.88212650     0.13020
C1770       C  0.81262060  0.90601616  0.90318330     0.62550
F1771       F  0.66949305  0.94194193  0.94173690    -0.22620
F1772       F  0.67957958  0.97470329  0.89633978    -0.19940
F1773       F  0.69348448  0.98869075  0.94983125    -0.19620
F1774       F  0.80571276  0.87797924  0.88731774    -0.19670
F1775       F  0.82884239  0.89990353  0.93315889    -0.20000
F1776       F  0.83222680  0.92452829  0.88119023    -0.22670
C1777       C  0.92927287  0.79801101  0.07954179    -0.05510
C1778       C  0.92920643  0.77696635  0.10838334     0.00420
C1779       C  0.89986354  0.76216608  0.11944485    -0.08150
C1780       C  0.87219516  0.77054584  0.10284832    -0.05530
C1781       C  0.87234048  0.78906459  0.07216423     0.00410
C1782       C  0.90183274  0.80322906  0.06005849    -0.08060
C1783       C  0.90730199  0.82260261  0.02672053     0.62320
H1784       H  0.95151095  0.80942666  0.07095043     0.13010
H1785       H  0.84978421  0.76069322  0.11296595     0.13020
C1786       C  0.89701917  0.73533533  0.14634145     0.62550
F1787       F  0.93053143  0.80918533  0.00720827    -0.22620
F1788       F  0.88108451  0.82470964  0.00654814    -0.19940
F1789       F  0.91760623  0.85275554  0.03448214    -0.19620
F1790       F  0.89784555  0.74708242  0.17902562    -0.19670
F1791       F  0.92104515  0.71483144  0.14161282    -0.20000
F1792       F  0.86881172  0.71795636  0.14378820    -0.22670
C1793       C  0.57246483  0.76365033  0.11921555    -0.05510
C1794       C  0.54631763  0.75094891  0.10163427     0.00420
C1795       C  0.55197680  0.73560530  0.07018843    -0.08150
C1796       C  0.58343228  0.73501966  0.05718466    -0.05530
C1797       C  0.60928406  0.74748139  0.07544324     0.00410
C1798       C  0.60365853  0.76021501  0.10814638    -0.08060
C1799       C  0.63009504  0.76954950  0.13236829     0.62320
H1800       H  0.56843812  0.77597841  0.14277331     0.13010
H1801       H  0.58791330  0.72541335  0.03214971     0.13020
C1802       C  0.52563730  0.72009152  0.04988804     0.62550
F1803       F  0.61938295  0.76904287  0.16632149    -0.22440
F1804       F  0.64165940  0.79966052  0.12378626    -0.19940
F1805       F  0.65431041  0.74871768  0.13062068    -0.19620
F1806       F  0.51032580  0.74270145  0.03083396    -0.19670
F1807       F  0.00422413  0.70372860  0.07179554    -0.20000
F1808       F  0.53740215  0.69886924  0.02715529    -0.22670
C1809       C  0.88605822  0.80864463  0.90675913    -0.05510
C1810       C  0.87611139  0.78659414  0.93272328     0.00420
C1811       C  0.89670299  0.76296705  0.94370292    -0.08150
C1812       C  0.92551477  0.76050348  0.92612332    -0.05530
C1813       C  0.93506875  0.78143258  0.89887703     0.00410
C1814       C  0.91578752  0.80705784  0.89016009    -0.08060
C1815       C  0.92534127  0.83275921  0.86352899     0.62320
H1816       H  0.87013244  0.82677572  0.89886438     0.13010
H1817       H  0.94031423  0.74108325  0.93272291     0.13020
C1818       C  0.88823756  0.73976587  0.97334996     0.62550
F1819       F  0.91435828  0.86133656  0.87353582    -0.22620
F1820       F  0.91222636  0.82566955  0.83217766    -0.19940
F1821       F  0.95782863  0.83638188  0.85965828    -0.19620
F1822       F  0.87660721  0.75544770  0.00104603    -0.19670
F1823       F  0.86570694  0.71789944  0.96311441    -0.20000
F1824       F  0.91426465  0.72374972  0.98441043    -0.22670
C1825       C  0.56115366  0.78216074  0.91271195    -0.05510
C1826       C  0.54789362  0.75376653  0.90185794     0.00420
C1827       C  0.56324419  0.72538762  0.90865972    -0.08150
C1828       C  0.59326884  0.72690612  0.92392697    -0.05530
C1829       C  0.60766390  0.75585674  0.93275571     0.00410
C1830       C  0.59041995  0.78381194  0.92874322    -0.08060
C1831       C  0.60249317  0.81576982  0.94030174     0.62320
H1832       H  0.54860470  0.80347821  0.90749240     0.13010
H1833       H  0.60603849  0.70561204  0.92818615     0.13020
C1834       C  0.54760680  0.69390037  0.90048432     0.62550
F1835       F  0.57846650  0.83682794  0.94238278    -0.22620
F1836       F  0.62472845  0.82811252  0.91657880    -0.19940
F1837       F  0.61549832  0.81309994  0.97270215    -0.19620
F1838       F  0.54424558  0.69171774  0.86527212    -0.19670
F1839       F  0.51807147  0.69101155  0.91633908    -0.20000
F1840       F  0.56514853  0.66902919  0.91210697    -0.22670
C1841       C  0.75023015  0.58479441  0.07253035    -0.05510
C1842       C  0.73127475  0.57580359  0.10154012     0.00420
C1843       C  0.70708017  0.59600007  0.11195211    -0.08150
C1844       C  0.70533854  0.62589418  0.09535177    -0.05530
C1845       C  0.72532865  0.63515014  0.06740334     0.00410
C1846       C  0.74719991  0.61379476  0.05479586    -0.08060
C1847       C  0.76731745  0.62159442  0.02263365     0.62320
H1848       H  0.76834233  0.56925628  0.06437993     0.13010
H1849       H  0.68850930  0.64237171  0.10454931     0.13020
C1850       C  0.68279480  0.58711292  0.14019886     0.62550
F1851       F  0.78398497  0.59607559  0.01237707    -0.22620
F1852       F  0.78883663  0.64592794  0.02867738    -0.19940
F1853       F  0.74811112  0.63040424  0.99583823    -0.19620
F1854       F  0.69270459  0.59931429  0.17097352    -0.19670
F1855       F  0.67791063  0.55486170  0.14426906    -0.20000
F1856       F  0.65394274  0.59943471  0.13213350    -0.22670
C1857       C  0.72872165  0.91710018  0.06799571    -0.05510
C1858       C  0.75765181  0.90195192  0.06743670     0.00420
C1859       C  0.78446487  0.91648989  0.08266950    -0.08150
C1860       C  0.78111431  0.94576243  0.09814700    -0.05530
C1861       C  0.75197004  0.96048588  0.09908732     0.00410
C1862       C  0.72518282  0.94585367  0.08402100    -0.08060
C1863       C  0.69259889  0.95961174  0.08621423     0.62320
H1864       H  0.70846427  0.90577455  0.05614122     0.13010
H1865       H  0.80114728  0.95723135  0.11026147     0.13020
C1866       C  0.81595971  0.90068017  0.08396699     0.62550
F1867       F  0.66925644  0.93915848  0.07437164    -0.22620
F1868       F  0.69205279  0.98714963  0.06637751    -0.19940
F1869       F  0.68516153  0.96577802  0.12011113    -0.19620
F1870       F  0.82825378  0.89858281  0.05093284    -0.19670
F1871       F  0.81185627  0.87080277  0.09899100    -0.20000
F1872       F  0.83784348  0.91735736  0.10308894    -0.22670
C1873       C  0.52279125  0.77209672  0.73372047    -0.05510
C1874       C  0.99773569  0.75738972  0.71636425     0.00420
C1875       C  0.96984560  0.74764634  0.73522049    -0.08150
C1876       C  0.97014942  0.74809925  0.77131158    -0.05530
C1877       C  0.99524276  0.76253866  0.78880156     0.00410
C1878       C  0.52111958  0.77677979  0.76937995    -0.08060
C1879       C  0.54629327  0.79827197  0.78488726     0.62320
H1880       H  0.54340002  0.78099808  0.71894511     0.13010
H1881       H  0.94982368  0.73826680  0.78592065     0.13020
C1882       C  0.93859077  0.73883351  0.71884641     0.62550
F1883       F  0.55695360  0.82125668  0.76086005    -0.22620
F1884       F  0.57173451  0.78097967  0.79488977    -0.19940
F1885       F  0.53452970  0.81361719  0.81292747    -0.19620
F1886       F  0.93309470  0.70663481  0.72203815    -0.19670
F1887       F  0.93763820  0.74850054  0.68455147    -0.20000
F1888       F  0.91434633  0.75334511  0.73567005    -0.22670
C1889       C  0.71597418  0.52716772  0.73059569    -0.05510
C1890       C  0.74420654  0.51663265  0.71584443     0.00420
C1891       C  0.76889680  0.50782435  0.73855467    -0.08150
C1892       C  0.76476140  0.51179941  0.77417958    -0.05530
C1893       C  0.73621493  0.52116883  0.78853828     0.00410
C1894       C  0.71085281  0.52785560  0.76650128    -0.08060
C1895       C  0.67790481  0.53362933  0.78050562     0.62320
H1896       H  0.69735049  0.53454684  0.71374651     0.13010
H1897       H  0.78389124  0.50673802  0.79149893     0.13020
C1898       C  0.79926717  0.49303900  0.72695520     0.62550
F1899       F  0.65553864  0.53217416  0.75488404    -0.22620
F1900       F  0.67708089  0.56301697  0.79441093    -0.19940
F1901       F  0.66929039  0.01089921  0.80563077    -0.19620
F1902       F  0.82161468  0.51629758  0.71698152    -0.19670
F1903       F  0.79373569  0.47301322  0.70027577    -0.20000
F1904       F  0.81193144  0.47523622  0.75350022    -0.22670
C1905       C  0.77422966  0.52540562  0.26665232    -0.05510
C1906       C  0.75045547  0.50697184  0.28459925     0.00420
C1907       C  0.72756601  0.49002449  0.26514976    -0.08150
C1908       C  0.72736674  0.49508007  0.22914820    -0.05530
C1909       C  0.75089800  0.51369696  0.21156333     0.00410
C1910       C  0.77560387  0.52797279  0.23037599    -0.08060
C1911       C  0.80389050  0.54472464  0.21225245     0.62320
H1912       H  0.79179296  0.53816442  0.28127673     0.13010
H1913       H  0.70911568  0.48347752  0.21427165     0.13020
C1914       C  0.70372003  0.46560066  0.28060300     0.62550
F1915       F  0.82695098  0.55361062  0.23531716    -0.22620
F1916       F  0.79462681  0.57147812  0.19466792    -0.19940
F1917       F  0.81726270  0.02482022  0.18915871    -0.19620
F1918       F  0.67471775  0.47900863  0.28459065    -0.19670
F1919       F  0.71322349  0.95320443  0.31197554    -0.20000
F1920       F  0.70008608  0.44066348  0.25879567    -0.22670
C1921       C  0.97729787  0.74147653  0.27299864    -0.05510
C1922       C  0.00157252  0.76098286  0.28595020     0.00420
C1923       C  0.52319231  0.77716882  0.26259341    -0.08150
C1924       C  0.51775710  0.77532154  0.22703647    -0.05530
C1925       C  0.99338002  0.75580357  0.21427999     0.00410
C1926       C  0.97429539  0.73684391  0.23765948    -0.08060
C1927       C  0.95236497  0.70988397  0.22733028     0.62320
H1928       H  0.96145847  0.72823442  0.29089259     0.13010
H1929       H  0.53288141  0.78890247  0.20875437     0.13020
C1930       C  0.55266384  0.79499537  0.27451722     0.62550
F1931       F  0.95886817  0.68310275  0.24676520    -0.22620
F1932       F  0.95600964  0.70273712  0.19314452    -0.19940
F1933       F  0.92138451  0.71723461  0.23379133    -0.19620
F1934       F  0.56733588  0.77767168  0.30001596    -0.19670
F1935       F  0.54484022  0.82371026  0.28702955    -0.20000
F1936       F  0.57434023  0.80062164  0.24768188    -0.22670
C1937       C  0.97777441  0.82584467  0.59795055    -0.05510
C1938       C  0.00616546  0.81088026  0.60159429     0.00420
C1939       C  0.53465132  0.82607536  0.58940534    -0.08150
C1940       C  0.53381831  0.85702369  0.57515302    -0.05530
C1941       C  0.50530801  0.87296019  0.57257295     0.00410
C1942       C  0.97648798  0.85635348  0.58338988    -0.08060
C1943       C  0.94405401  0.86986395  0.57967183     0.62320
H1944       H  0.95644821  0.81343186  0.60771374     0.13010
H1945       H  0.55563128  0.86914414  0.56648236     0.13020
C1946       C  0.56559215  0.80947858  0.59172078     0.62550
F1947       F  0.91979159  0.84780835  0.58741721    -0.22620
F1948       F  0.94028850  0.88022673  0.54592959    -0.19940
F1949       F  0.94094683  0.89416376  0.60209405    -0.19620
F1950       F  0.56324313  0.78178329  0.57409509    -0.19670
F1951       F  0.57216247  0.80256753  0.62588418    -0.20000
F1952       F  0.59060162  0.82775972  0.57748960    -0.22670
C1953       C  0.96940830  0.63921730  0.60135392    -0.05510
C1954       C  0.98602887  0.63709753  0.57027653     0.00420
C1955       C  0.00481517  0.66308432  0.55738941    -0.08150
C1956       C  0.00848736  0.68971897  0.57755095    -0.05530
C1957       C  0.99162997  0.69261127  0.60888649     0.00410
C1958       C  0.97065907  0.66688958  0.62035609    -0.08060
C1959       C  0.94842936  0.66788333  0.65129621     0.62320
H1960       H  0.95541096  0.61873340  0.61080048     0.13010
H1961       H  0.02451846  0.70876503  0.56846280     0.13020
C1962       C  0.01906246  0.66322839  0.52137337     0.62550
F1963       F  0.92381163  0.64555620  0.64963479    -0.22620
F1964       F  0.93505694  0.69682885  0.65219743    -0.19940
F1965       F  0.46444540  0.66157789  0.68133356    -0.19620
F1966       F  0.99474797  0.65890299  0.49852181    -0.19670
F1967       F  0.53990918  0.63923591  0.51849317    -0.20000
F1968       F  0.53505896  0.69143066  0.51245513    -0.22670
C1969       C  0.98753611  0.87168550  0.40417555    -0.05510
C1970       C  0.51181600  0.87788030  0.42794266     0.00420
C1971       C  0.53260789  0.85333029  0.43642983    -0.08150
C1972       C  0.52900368  0.82462515  0.41953318    -0.05530
C1973       C  0.00453827  0.81895699  0.39628891     0.00410
C1974       C  0.98238609  0.84226376  0.38990239    -0.08060
C1975       C  0.95240070  0.83724624  0.36930757     0.62320
H1976       H  0.97110403  0.88967043  0.39740089     0.13010
H1977       H  0.54546725  0.80617666  0.42420809     0.13020
C1978       C  0.55818099  0.85659833  0.46319995     0.62550
F1979       F  0.92706634  0.84911653  0.38694633    -0.22620
F1980       F  0.94487616  0.80588201  0.36405405    -0.19940
F1981       F  0.95590674  0.85312817  0.33770718    -0.19620
F1982       F  0.54470260  0.86325748  0.49464651    -0.19670
F1983       F  0.57977729  0.88035013  0.45290257    -0.20000
F1984       F  0.57455020  0.82927739  0.46780386    -0.22670
C1985       C  0.96948353  0.68549873  0.39626749    -0.05510
C1986       C  0.99885240  0.70177333  0.39792452     0.00420
C1987       C  0.52438383  0.68772909  0.41450052    -0.08150
C1988       C  0.51967517  0.65718029  0.42868325    -0.05530
C1989       C  0.99033898  0.64056527  0.42700051     0.00410
C1990       C  0.96471677  0.65484633  0.41049329    -0.08060
C1991       C  0.93348383  0.63711154  0.40549778     0.62320
H1992       H  0.95053965  0.69683118  0.38284942     0.13010
H1993       H  0.53901861  0.64594798  0.44147860     0.13020
C1994       C  0.55656939  0.70463435  0.41639104     0.62550
F1995       F  0.91310307  0.65423714  0.38538966    -0.22620
F1996       F  0.91868026  0.63022593  0.43701584    -0.19940
F1997       F  0.93910089  0.60959177  0.38907529    -0.19620
F1998       F  0.55410155  0.73152317  0.43509392    -0.19670
F1999       F  0.56775283  0.71283805  0.38348115    -0.20000
F2000       F  0.57853885  0.68600379  0.43226887    -0.22670
C2001       C  0.68052271  0.52006817  0.58236108    -0.05510
C2002       C  0.68876684  0.49530047  0.60457757     0.00420
C2003       C  0.66913264  0.96744573  0.60688325    -0.08150
C2004       C  0.64036427  0.96661292  0.58871914    -0.05530
C2005       C  0.63150833  0.99225183  0.56767973     0.00410
C2006       C  0.65307441  0.51861228  0.56279653    -0.08060
C2007       C  0.64922626  0.54568821  0.53691714     0.62320
H2008       H  0.69615518  0.54090308  0.57984795     0.13010
H2009       H  0.62409628  0.94636830  0.59178021     0.13020
C2010       C  0.67872918  0.93866902  0.62773020     0.62550
F2011       F  0.64346155  0.57274601  0.55432197    -0.22620
F2012       F  0.62525071  0.54018383  0.51414992    -0.19940
F2013       F  0.67685284  0.55058034  0.51754225    -0.19620
F2014       F  0.67784951  0.94452352  0.66251529    -0.19670
F2015       F  0.70904939  0.93106977  0.61822815    -0.20000
F2016       F  0.65871334  0.91283680  0.62231542    -0.22670
C2017       C  0.81998359  0.54854554  0.59619090    -0.05510
C2018       C  0.80530856  0.51874727  0.60325171     0.00420
C2019       C  0.82088963  0.99140725  0.59395796    -0.08150
C2020       C  0.85096235  0.99486713  0.57840611    -0.05530
C2021       C  0.86622967  0.52448744  0.57171963     0.00410
C2022       C  0.85019072  0.55201707  0.58002021    -0.08060
C2023       C  0.86481227  0.58472675  0.57246143     0.62320
H2024       H  0.80747412  0.56907816  0.60346926     0.13010
H2025       H  0.86284234  0.97401450  0.57104356     0.13020
C2026       C  0.80619243  0.95850235  0.60086696     0.62550
F2027       F  0.84642208  0.60787921  0.58553472    -0.22620
F2028       F  0.86775636  0.59016043  0.53718321    -0.19940
F2029       F  0.89430284  0.58741229  0.58719557    -0.19620
F2030       F  0.77984054  0.95412107  0.58076537    -0.19670
F2031       F  0.79746313  0.95445315  0.63522527    -0.20000
F2032       F  0.82699149  0.93530685  0.59326800    -0.22670
C2033       C  0.67461121  0.97714624  0.39518165    -0.05510
C2034       C  0.69099298  0.50642917  0.39715861     0.00420
C2035       C  0.67787855  0.53048631  0.41633616    -0.08150
C2036       C  0.64846678  0.52428766  0.43287092    -0.05530
C2037       C  0.63163844  0.99524559  0.43042484     0.00410
C2038       C  0.64491349  0.97112357  0.41146217    -0.08060
C2039       C  0.62757208  0.93963992  0.40780342     0.62320
H2040       H  0.68526247  0.95907665  0.38038716     0.13010
H2041       H  0.63782346  0.54260255  0.44725559     0.13020
C2042       C  0.69399870  0.56295220  0.41805782     0.62550
F2043       F  0.64353780  0.92040153  0.38597441    -0.22620
F2044       F  0.59783927  0.94399868  0.39457624    -0.19940
F2045       F  0.62468354  0.92453633  0.43982693    -0.19620
F2046       F  0.70051967  0.57505308  0.38505669    -0.19670
F2047       F  0.72185869  0.56114282  0.43592463    -0.20000
F2048       F  0.67518151  0.58381833  0.43467820    -0.22670
C2049       C  0.84408134  0.50577728  0.44514569    -0.05510
C2050       C  0.86859070  0.52349537  0.42809649     0.00420
C2051       C  0.86394094  0.53541961  0.39413136    -0.08150
C2052       C  0.83392123  0.53150235  0.37972871    -0.05530
C2053       C  0.80959353  0.51258922  0.39596480     0.00410
C2054       C  0.81540909  0.49825333  0.42888243    -0.08060
C2055       C  0.79365880  0.47325085  0.44681503     0.62320
H2056       H  0.84849182  0.49547709  0.47050123     0.13010
H2057       H  0.82993727  0.54256037  0.35467205     0.13020
C2058       C  0.88972473  0.55104702  0.37109894     0.62550
F2059       F  0.81134560  0.95026199  0.46244065    -0.22620
F2060       F  0.77386718  0.95818165  0.42406747    -0.19940
F2061       F  0.77584252  0.48689098  0.47202837    -0.19620
F2062       F  0.89195648  0.53473536  0.34095145    -0.19670
F2063       F  0.91909948  0.55164784  0.38598396    -0.20000
F2064       F  0.88191504  0.58161429  0.36289558    -0.22670
loop_ 
_geom_bond_atom_site_label_1 
_geom_bond_atom_site_label_2 
_geom_bond_distance 
_geom_bond_site_symmetry_2 
_ccdc_geom_bond_type 
O1          Zr13   2.415       .  S
O1          C519   1.282       .  A
O2          Zr39   2.452       .  S
O2            C3   1.292       .  A
C3          O517   1.282   1_545  A
C3          C502   1.470       .  S
O4          Zr16   2.434       .  S
O4         C1038   1.285       .  A
O5          Zr40   2.463       .  S
O5            C6   1.295       .  A
C6         O1036   1.285   1_455  A
C6          C393   1.505       .  S
O7          Zr16   2.428       .  S
O7          C525   1.288       .  A
O8          Zr39   2.440       .  S
O8            C9   1.288       .  A
C9          O523   1.288       .  A
C9          C473   1.492       .  S
O10         Zr13   2.416       .  S
O10        C1044   1.285       .  A
O11         Zr40   2.444       .  S
O11          C12   1.288       .  A
C12        O1042   1.285   1_455  A
C12         C422   1.501       .  S
Zr13         O14   2.435       .  S
Zr13         O15   2.435       .  S
Zr13         O19   2.363       .  S
Zr13         O20   2.363       .  S
Zr13       O1075   2.364       .  S
Zr13        O561   2.366       .  S
O14          H57   0.990       .  S
O15          H56   0.990       .  S
O15          H60   0.990       .  S
Zr16         O17   2.433       .  S
Zr16         O18   2.434       .  S
Zr16         O20   2.366       .  S
Zr16         O19   2.356       .  S
Zr16        O560   2.366       .  S
Zr16       O1078   2.378       .  S
O17          H58   0.988       .  S
O17          H61   0.988       .  S
O18          H51   0.990       .  S
O19        Zr555   2.372       .  S
O20       Zr1072   2.392       .  S
O20          H47   0.965       .  S
O21         Zr33   2.412       .  S
O21         C539   1.283   1_545  A
O22         Zr40   2.459       .  S
O22          C23   1.293       .  A
C23         O537   1.283       .  A
C23         C489   1.480       .  S
O24         Zr36   2.426       .  S
O24        C1058   1.284   1_455  A
O25         Zr39   2.446       .  S
O25          C26   1.290       .  A
C26        O1056   1.284       .  A
C26         C406   1.474       .  S
O27         Zr36   2.440       .  S
O27         C545   1.288   1_545  A
O28         Zr40   2.459       .  S
O28          C29   1.293       .  A
C29         O543   1.288       .  A
C29         C457   1.487       .  S
O30         Zr33   2.412       .  S
O30        C1064   1.283   1_455  A
O31         Zr39   2.435       .  S
O31          C32   1.288       .  A
C32        O1062   1.283       .  A
C32         C441   1.477       .  S
Zr33         O34   2.438       .  S
Zr33         O35   2.434       .  S
Zr33         O41   2.357       .  S
Zr33         O42   2.367       .  S
Zr33       O1077   2.358   1_455  S
Zr33        O559   2.368   1_545  S
O34          H54   0.990       .  S
O34          H59   0.990       .  S
O35          H55   0.990       .  S
Zr36         O37   2.432       .  S
Zr36         O38   2.434       .  S
Zr36         O42   2.372       .  S
Zr36         O41   2.356       .  S
Zr36        O562   2.370   1_545  S
Zr36       O1076   2.367   1_455  S
O37          H53   0.990       .  S
O38          H52   0.990       .  S
O38          H62   0.990       .  S
Zr39         O44   2.396       .  S
Zr39         O45   2.395       .  S
Zr39        O535   2.372   1_545  S
Zr39       O1074   2.381       .  S
Zr40         O43   2.400       .  S
Zr40         O46   2.399       .  S
Zr40       O1052   2.392   1_455  S
Zr40        O557   2.382       .  S
O41        Zr556   2.382   1_545  S
O41          H49   0.960       .  S
O42       Zr1071   2.381   1_455  S
O43       Zr1045   2.364   1_455  S
O43        Zr549   2.368       .  S
O44        Zr532   2.366   1_545  S
O44       Zr1068   2.367       .  S
O44          H48   0.966       .  S
O45        Zr529   2.366   1_545  S
O45       Zr1065   2.358       .  S
O45          H50   0.966       .  S
O46       Zr1048   2.378   1_455  S
O46        Zr552   2.370       .  S
C63         C438   1.468       .  S
C63          C64   1.397       .  A
C63          C68   1.396       .  A
C64          C65   1.402       .  A
C64          H69   1.085       .  S
C65         C374   1.483       .  S
C65          C66   1.401       .  A
C66          C67   1.405       .  A
C66          H70   1.080       .  S
C67         C425   1.476       .  S
C67          C68   1.400       .  A
C68          H71   1.084       .  S
C72         C486   1.478       .  S
C72          C73   1.398       .  A
C72          C77   1.400       .  A
C73          C74   1.403       .  A
C73          H78   1.079       .  S
C74         C505   1.497       .  S
C74          C75   1.411       .  A
C75          C76   1.409       .  A
C75          H79   1.083       .  S
C76         C358   1.499       .  S
C76          C77   1.405       .  A
C77          H80   1.081       .  S
C81         C454   1.487       .  S
C81          C82   1.404   1_565  A
C81          C86   1.402   1_565  A
C82          C83   1.415       .  A
C82          H87   1.081   1_545  S
C83         C342   1.508       .  S
C83          C84   1.410       .  A
C84          C85   1.403       .  A
C84          H88   1.076       .  S
C85         C470   1.483       .  S
C85          C86   1.399       .  A
C86          H89   1.084       .  S
C90         C409   1.511       .  S
C90          C91   1.417       .  A
C90          C95   1.413       .  A
C91          C92   1.403       .  A
C91          H96   1.083       .  S
C92         C390   1.477       .  S
C92          C93   1.394       .  A
C93          C94   1.396       .  A
C93          H97   1.085       .  S
C94         C326   1.483       .  S
C94          C95   1.408       .  A
C95          H98   1.074       .  S
C99         C313   1.484       .  S
C99         C100   1.401       .  A
C99         C620   1.403       .  A
C100        C617   1.403       .  A
C100        H105   1.084       .  S
C101        C361   1.484       .  S
C101        C102   1.405       .  A
C101        C616   1.403   1_545  A
C102        C103   1.408       .  A
C102        H106   1.081       .  S
C103        C294   1.495       .  S
C103        C104   1.408       .  A
C104        C615   1.403   1_545  A
C104        H107   1.083       .  S
O108       Zr120   2.418       .  S
O108        C110   1.285       .  A
O109       Zr146   2.447       .  S
O109        C110   1.290       .  A
C110        C214   1.483       .  S
O111       Zr123   2.432       .  S
O111        C113   1.285       .  A
O112       Zr147   2.445       .  S
O112        C113   1.290       .  A
C113        C249   1.489       .  S
O114       Zr123   2.423       .  S
O114        C116   1.286       .  A
O115       Zr146   2.444   1_554  S
O115        C116   1.289       .  A
C116        C310   1.486       .  S
O117       Zr120   2.426       .  S
O117        C119   1.285       .  A
O118       Zr147   2.446   1_556  S
O118        C119   1.291       .  A
C119        C281   1.485       .  S
Zr120       O121   2.431       .  S
Zr120       O122   2.434       .  S
Zr120       O126   2.356       .  S
Zr120       O127   2.365   1_556  S
Zr120       O150   2.368       .  S
Zr120       O152   2.369       .  S
O121        H164   0.990       .  S
O122        H163   0.990       .  S
O122        H167   0.990       .  S
Zr123       O124   2.438       .  S
Zr123       O125   2.435       .  S
Zr123       O127   2.359       .  S
Zr123       O126   2.361   1_554  S
Zr123       O151   2.370       .  S
Zr123       O153   2.372       .  S
O124        H165   0.990       .  S
O124        H168   0.989       .  S
O125        H158   0.990       .  S
O126       Zr146   2.372       .  S
O127       Zr147   2.389       .  S
O127        H154   0.964       .  S
O128       Zr140   2.430       .  S
O128        C130   1.285       .  A
O129       Zr147   2.445   1_556  S
O129        C130   1.291       .  A
C130        C201   1.491       .  S
O131       Zr143   2.433       .  S
O131        C133   1.289       .  A
O132       Zr146   2.444   1_554  S
O132        C133   1.287       .  A
C133        C233   1.500       .  S
O134       Zr143   2.430       .  S
O134        C136   1.285       .  A
O135       Zr147   2.457       .  S
O135        C136   1.292       .  A
C136        C297   1.478       .  S
O137       Zr140   2.414       .  S
O137        C139   1.282       .  A
O138       Zr146   2.444       .  S
O138        C139   1.290       .  A
C139        C262   1.471       .  S
Zr140       O141   2.437       .  S
Zr140       O142   2.434       .  S
Zr140       O148   2.357       .  S
Zr140       O149   2.369       .  S
Zr140       O152   2.371       .  S
Zr140       O150   2.364       .  S
O141        H161   0.990       .  S
O141        H166   0.989       .  S
O142        H162   0.990       .  S
Zr143       O144   2.434       .  S
Zr143       O145   2.434       .  S
Zr143       O149   2.362   1_554  S
Zr143       O148   2.373   1_554  S
Zr143       O153   2.370       .  S
Zr143       O151   2.364       .  S
O144        H160   0.991       .  S
O145        H159   0.990       .  S
O145        H169   0.990       .  S
Zr146       O149   2.386       .  S
Zr146       O151   2.398   1_556  S
Zr146       O152   2.400       .  S
Zr147       O148   2.390   1_554  S
Zr147       O150   2.395   1_554  S
Zr147       O153   2.397       .  S
O148        H156   0.964       .  S
O151        H155   0.966       .  S
O152        H157   0.966       .  S
C170        C230   1.505       .  S
C170        C171   1.408       .  A
C170        C175   1.419       .  A
C171        C172   1.400       .  A
C171        H176   1.079       .  S
C172        C377   1.479       .  S
C172       C1205   1.391       .  A
C173        C174   1.405       .  A
C173       C1204   1.391   1_455  A
C173        H177   1.085       .  S
C174        C246   1.504       .  S
C174       C1207   1.415   1_455  A
C175       C1206   1.415       .  A
C175        H178   1.076       .  S
C179        C217   1.490       .  S
C179        C180   1.401       .  A
C179        C700   1.412       .  A
C180        C697   1.400       .  A
C180        H185   1.084       .  S
C181        C345   1.488       .  S
C181        C182   1.400       .  A
C181        C696   1.400   1_545  A
C182        C183   1.412       .  A
C182        H186   1.080       .  S
C183        C198   1.508       .  S
C183        C184   1.415       .  A
C184        C695   1.412   1_545  A
C184        H187   1.079       .  S
C188        C265   1.487       .  S
C188        C189   1.406       .  A
C188        C193   1.403       .  A
C189        C190   1.409       .  A
C189        H194   1.082       .  S
C190        C329   1.485       .  S
C190       C1223   1.402       .  A
C191        C192   1.397       .  A
C191       C1222   1.402   1_455  A
C191        H195   1.081       .  S
C192        C278   1.472       .  S
C192       C1225   1.398   1_455  A
C193       C1224   1.398       .  A
C193        H196   1.085       .  S
C197        C198   1.408       .  A
C197        C202   1.401       .  A
C197        H204   1.083       .  S
C198        C199   1.428       .  A
C199        C200   1.413       .  A
C199        C206   1.513       .  S
C200        C201   1.403       .  A
C200        H205   1.084       .  S
C201        C202   1.417       .  A
C202        C203   1.518       .  S
C203        F207   1.385       .  S
C203        F208   1.381       .  S
C203        F209   1.384       .  S
C206        F210   1.381       .  S
C206        F211   1.382       .  S
C206        F212   1.385       .  S
C213        C214   1.403       .  A
C213        C218   1.401       .  A
C213        H220   1.084       .  S
C214        C215   1.414       .  A
C215        C216   1.415       .  A
C215        C222   1.517       .  S
C216        C217   1.411       .  A
C216        H221   1.083       .  S
C217        C218   1.416       .  A
C218        C219   1.517       .  S
C219        F223   1.385       .  S
C219        F224   1.384       .  S
C219        F225   1.376       .  S
C222        F226   1.384       .  S
C222        F227   1.382       .  S
C222        F228   1.384       .  S
C229        C230   1.409       .  A
C229        C234   1.417       .  A
C229        H236   1.084       .  S
C230        C231   1.423       .  A
C231        C232   1.398       .  A
C231        C238   1.520       .  S
C232        C233   1.405       .  A
C232        H237   1.084       .  S
C233        C234   1.430       .  A
C234        C235   1.519       .  S
C235        F239   1.384       .  S
C235        F240   1.372       .  S
C235        F241   1.383       .  S
C238        F242   1.379       .  S
C238        F243   1.380       .  S
C238        F244   1.386       .  S
C245        C246   1.408       .  A
C245        C250   1.397       .  A
C245        H252   1.084       .  S
C246        C247   1.425       .  A
C247        C248   1.418       .  A
C247        C254   1.518       .  S
C248        C249   1.409       .  A
C248        H253   1.083       .  S
C249        C250   1.417       .  A
C250        C251   1.522       .  S
C251        F255   1.385       .  S
C251        F256   1.381       .  S
C251        F257   1.384       .  S
C254        F258   1.382       .  S
C254        F260   1.385       .  S
C254       F1291   1.383       .  S
F259       C1286   1.383       .  S
C261        C262   1.401       .  A
C261        C266   1.409       .  A
C261        H268   1.084       .  S
C262        C263   1.416       .  A
C263        C264   1.397       .  A
C263        C270   1.519       .  S
C264        C265   1.403       .  A
C264        H269   1.083       .  S
C265        C266   1.423       .  A
C266        C267   1.517       .  S
C267        F271   1.385       .  S
C267        F272   1.383       .  S
C267        F273   1.383       .  S
C270        F274   1.379   1_556  S
C270        F275   1.378       .  S
C270        F276   1.385       .  S
C277        C278   1.393       .  A
C277        C282   1.395       .  A
C277        H284   1.084       .  S
C278        C279   1.413       .  A
C279        C280   1.411       .  A
C279        C286   1.516       .  S
C280        C281   1.408       .  A
C280        H285   1.083       .  S
C281        C282   1.426       .  A
C282        C283   1.518       .  S
C283        F287   1.385       .  S
C283        F288   1.381       .  S
C283        F289   1.383       .  S
C286        F290   1.382       .  S
C286        F291   1.384       .  S
C286        F292   1.384       .  S
C293        C294   1.405       .  A
C293        C298   1.404       .  A
C293        H300   1.083       .  S
C294        C295   1.425       .  A
C295        C296   1.411       .  A
C295        C302   1.518       .  S
C296        C297   1.401       .  A
C296        H301   1.084       .  S
C297        C298   1.416       .  A
C298        C299   1.519       .  S
C299        F303   1.385       .  S
C299        F304   1.380       .  S
C299        F305   1.381   1_554  S
C302        F306   1.383       .  S
C302        F307   1.383       .  S
C302        F308   1.385       .  S
C309        C310   1.407       .  A
C309        C314   1.403       .  A
C309        H316   1.083       .  S
C310        C311   1.418       .  A
C311        C312   1.412       .  A
C311        C318   1.518       .  S
C312        C313   1.406       .  A
C312        H317   1.083       .  S
C313        C314   1.416       .  A
C314        C315   1.522       .  S
C315        F319   1.385       .  S
C315        F320   1.381       .  S
C315        F321   1.383       .  S
C318        F322   1.382       .  S
C318        F323   1.384       .  S
C318        F324   1.384       .  S
C325        C330   1.405       .  A
C325       C1358   1.403   1_455  A
C325        H332   1.084       .  S
C326        C327   1.419       .  A
C326       C1357   1.403       .  A
C327        C328   1.401       .  A
C327        C334   1.516       .  S
C328        C329   1.402       .  A
C328        H333   1.084       .  S
C329       C1362   1.423       .  A
C330       C1361   1.423   1_455  A
C330        C331   1.521       .  S
C331        F335   1.385       .  S
C331        F336   1.382       .  S
C331        F337   1.384       .  S
C334        F338   1.382       .  S
C334        F339   1.381       .  S
C334        F340   1.385       .  S
C341        C342   1.413       .  A
C341        C346   1.408       .  A
C341        H348   1.082       .  S
C342        C343   1.431       .  A
C343        C344   1.407       .  A
C343        C350   1.522   1_545  S
C344        C345   1.401       .  A
C344        H349   1.084       .  S
C345        C346   1.415       .  A
C346        C347   1.521       .  S
C347        F351   1.385       .  S
C347        F352   1.380       .  S
C347        F869   1.384       .  S
C350        F354   1.382   1_565  S
C350        F355   1.380       .  S
C350        F356   1.385       .  S
F353        C863   1.384       .  S
C357        C358   1.411       .  A
C357        C362   1.408       .  A
C357        H364   1.082       .  S
C358        C359   1.426   1_545  A
C359        C360   1.406       .  A
C359        C366   1.521       .  S
C360        C361   1.401   1_565  A
C360        H365   1.085       .  S
C361        C362   1.414       .  A
C362        C363   1.519       .  S
C363        F367   1.385       .  S
C363        F368   1.381       .  S
C363        F885   1.384       .  S
C366        F370   1.383       .  S
C366        F372   1.385       .  S
C366        F887   1.382       .  S
F369        C879   1.384       .  S
F371        C882   1.382       .  S
C373        C374   1.405       .  A
C373        C378   1.399       .  A
C373        H380   1.085       .  S
C374       C1407   1.419       .  A
C375        C376   1.406       .  A
C375       C1406   1.419       .  A
C375        C382   1.520       .  S
C376       C1409   1.405   1_455  A
C376        H381   1.084       .  S
C377        C378   1.414       .  A
C377       C1408   1.405       .  A
C378        C379   1.515       .  S
C379        F383   1.384       .  S
C379        F384   1.378       .  S
C379        F385   1.381       .  S
C382        F386   1.384       .  S
C382        F387   1.381       .  S
C382        F388   1.385       .  S
C389        C390   1.389       .  A
C389        C394   1.402       .  A
C389        H396   1.084       .  S
C390       C1423   1.412       .  A
C391        C392   1.413       .  A
C391       C1422   1.412       .  A
C391        C398   1.515       .  S
C392        C393   1.411       .  A
C392        H397   1.082       .  S
C393       C1426   1.435   1_455  A
C394       C1425   1.435       .  A
C394        C395   1.517       .  S
C395        F399   1.385       .  S
C395        F400   1.381       .  S
C395        F401   1.383       .  S
C398        F402   1.383       .  S
C398        F403   1.383       .  S
C398        F404   1.384       .  S
C405        C406   1.394       .  A
C405        C410   1.410       .  A
C405        H412   1.084       .  S
C406        C407   1.409       .  A
C407        C408   1.404       .  A
C407        C414   1.513       .  S
C408        C409   1.411       .  A
C408        H413   1.082       .  S
C409        C410   1.435       .  A
C410        C411   1.516       .  S
C411        F415   1.385       .  S
C411        F416   1.377       .  S
C411       F1449   1.381       .  S
C414        F418   1.380       .  S
C414       F1451   1.382       .  S
C414       F1452   1.385       .  S
F417       C1443   1.381       .  S
F419       C1446   1.382       .  S
F420       C1446   1.385       .  S
C421        C426   1.397       .  A
C421       C1454   1.415       .  A
C421        H428   1.083       .  S
C422        C423   1.426       .  A
C422       C1453   1.415   1_455  A
C423        C424   1.410       .  A
C423        C430   1.518       .  S
C424       C1457   1.403       .  A
C424        H429   1.083       .  S
C425        C426   1.411       .  A
C425       C1456   1.403       .  A
C426        C427   1.522       .  S
C427        F431   1.385       .  S
C427        F432   1.382       .  S
C427        F433   1.383       .  S
C430        F434   1.381       .  S
C430        F435   1.380       .  S
C430        F436   1.385       .  S
C437        C438   1.402       .  A
C437        C442   1.405       .  A
C437        H444   1.083       .  S
C438       C1471   1.409       .  A
C439        C440   1.400       .  A
C439       C1470   1.409   1_455  A
C439        C446   1.519       .  S
C440       C1473   1.407   1_455  A
C440        H445   1.083       .  S
C441        C442   1.416       .  A
C441       C1472   1.407       .  A
C442        C443   1.514       .  S
C443        F447   1.385       .  S
C443        F448   1.382       .  S
C443        F449   1.379       .  S
C446        F450   1.382       .  S
C446        F451   1.383       .  S
C446        F452   1.385       .  S
C453        C454   1.397   1_545  A
C453        C458   1.398       .  A
C453        H460   1.085       .  S
C454        C971   1.419       .  A
C455        C456   1.416       .  A
C455        C970   1.419       .  A
C455        C462   1.517       .  S
C456        C457   1.407       .  A
C456        H461   1.083       .  S
C457        C974   1.423       .  A
C458        C973   1.423   1_545  A
C458        C459   1.518       .  S
C459        F463   1.382       .  S
C459        F464   1.374       .  S
C459        F465   1.385       .  S
C462        F466   1.381       .  S
C462        F467   1.383       .  S
C462        F468   1.384       .  S
C469        C470   1.406       .  A
C469        C474   1.415       .  A
C469        H476   1.083       .  S
C470        C987   1.415   1_545  A
C471        C472   1.400       .  A
C471        C986   1.415       .  A
C471        C478   1.523       .  S
C472        C989   1.407       .  A
C472        H477   1.082       .  S
C473        C474   1.421       .  A
C473        C988   1.407   1_545  A
C474        C475   1.518       .  S
C475        F479   1.384       .  S
C475        F480   1.383       .  S
C475        F481   1.383       .  S
C478        F482   1.381       .  S
C478        F483   1.381       .  S
C478        F484   1.385       .  S
C485        C490   1.408       .  A
C485       C1002   1.406       .  A
C485        H492   1.083       .  S
C486        C487   1.412       .  A
C486       C1001   1.406   1_545  A
C487        C488   1.403       .  A
C487        C494   1.520       .  S
C488       C1005   1.408   1_545  A
C488        H493   1.082       .  S
C489        C490   1.412       .  A
C489       C1004   1.408       .  A
C490        C491   1.514       .  S
C491        F495   1.385       .  S
C491        F496   1.384       .  S
C491        F497   1.381       .  S
C494        F498   1.383       .  S
C494        F499   1.381       .  S
C494        F500   1.385       .  S
C501        C502   1.401       .  A
C501        C506   1.407   1_545  A
C501        H508   1.085   1_545  S
C502        C503   1.415       .  A
C503        C504   1.402       .  A
C503        C510   1.517       .  S
C504        C505   1.408       .  A
C504        H509   1.084       .  S
C505        C506   1.426   1_545  A
C506        C507   1.521       .  S
C507        F513   1.383       .  S
C507       F1027   1.385       .  S
C507       F1028   1.382       .  S
C510        F514   1.384       .  S
C510        F515   1.379       .  S
C510        F516   1.383       .  S
F511       C1023   1.385       .  S
F512       C1023   1.382       .  S
O517       Zr529   2.415       .  S
O518       Zr555   2.452       .  S
O518        C519   1.292       .  A
C519       C1018   1.470       .  S
O520       Zr532   2.434       .  S
O520       C1554   1.285       .  A
O521       Zr556   2.463       .  S
O521        C522   1.295       .  A
C522       O1552   1.285   1_455  A
C522        C909   1.505       .  S
O523       Zr532   2.428   1_545  S
O524       Zr555   2.440       .  S
O524        C525   1.288       .  A
C525        C989   1.492       .  S
O526       Zr529   2.416       .  S
O526       C1560   1.285       .  A
O527       Zr556   2.444       .  S
O527        C528   1.288       .  A
C528       O1558   1.285   1_455  A
C528        C938   1.501       .  S
Zr529       O530   2.435       .  S
Zr529       O531   2.435       .  S
Zr529       O535   2.363       .  S
Zr529       O536   2.363       .  S
Zr529      O1591   2.364       .  S
O530        H573   0.990       .  S
O531        H572   0.990       .  S
O531        H576   0.990       .  S
Zr532       O533   2.433       .  S
Zr532       O534   2.434       .  S
Zr532       O536   2.366       .  S
Zr532       O535   2.356       .  S
Zr532      O1594   2.378       .  S
O533        H574   0.988       .  S
O533        H577   0.988       .  S
O534        H567   0.990       .  S
O536      Zr1588   2.392       .  S
O536        H563   0.965       .  S
O537       Zr549   2.412       .  S
O538       Zr556   2.459       .  S
O538        C539   1.293       .  A
C539       C1005   1.480       .  S
O540       Zr552   2.426       .  S
O540       C1574   1.284   1_455  A
O541       Zr555   2.446       .  S
O541        C542   1.290       .  A
C542       O1572   1.284       .  A
C542        C922   1.474       .  S
O543       Zr552   2.440       .  S
O544       Zr556   2.459       .  S
O544        C545   1.293       .  A
C545        C973   1.487       .  S
O546       Zr549   2.412       .  S
O546       C1580   1.283   1_455  A
O547       Zr555   2.435       .  S
O547        C548   1.288       .  A
C548       O1578   1.283       .  A
C548        C957   1.477       .  S
Zr549       O550   2.438       .  S
Zr549       O551   2.434       .  S
Zr549       O557   2.357       .  S
Zr549       O558   2.367       .  S
Zr549      O1593   2.358   1_455  S
O550        H570   0.990       .  S
O550        H575   0.990       .  S
O551        H571   0.990       .  S
Zr552       O553   2.432       .  S
Zr552       O554   2.434       .  S
Zr552       O558   2.372       .  S
Zr552       O557   2.356       .  S
Zr552      O1592   2.367   1_455  S
O553        H569   0.990       .  S
O554        H568   0.990       .  S
O554        H578   0.990       .  S
Zr555      O1590   2.381       .  S
Zr555       O560   2.396       .  S
Zr555       O561   2.395       .  S
Zr556      O1568   2.392   1_455  S
Zr556       O559   2.400       .  S
Zr556       O562   2.399       .  S
O557        H565   0.961       .  S
O558      Zr1587   2.381   1_455  S
O559      Zr1561   2.364   1_455  S
O560      Zr1584   2.367       .  S
O560        H564   0.966       .  S
O561      Zr1581   2.358       .  S
O561        H566   0.966       .  S
O562      Zr1564   2.378   1_455  S
C579        C954   1.468       .  S
C579        C580   1.397       .  A
C579        C584   1.396       .  A
C580        C581   1.402       .  A
C580        H585   1.085       .  S
C581        C890   1.483       .  S
C581        C582   1.401       .  A
C582        C583   1.405       .  A
C582        H586   1.080       .  S
C583        C941   1.476       .  S
C583        C584   1.400       .  A
C584        H587   1.084       .  S
C588       C1002   1.478       .  S
C588        C589   1.398       .  A
C588        C593   1.400       .  A
C589        C590   1.403       .  A
C589        H594   1.079       .  S
C590       C1021   1.497       .  S
C590        C591   1.411       .  A
C591        C592   1.409       .  A
C591        H595   1.083       .  S
C592        C874   1.499       .  S
C592        C593   1.405       .  A
C593        H596   1.081       .  S
C597        C970   1.487       .  S
C597        C598   1.404       .  A
C597        C602   1.402       .  A
C598        C599   1.415       .  A
C598        H603   1.081       .  S
C599        C858   1.508       .  S
C599        C600   1.410       .  A
C600        C601   1.403       .  A
C600        H604   1.076       .  S
C601        C986   1.483       .  S
C601        C602   1.399       .  A
C602        H605   1.084       .  S
C606        C925   1.511       .  S
C606        C607   1.417       .  A
C606        C611   1.413       .  A
C607        C608   1.403       .  A
C607        H612   1.083       .  S
C608        C906   1.477       .  S
C608        C609   1.394       .  A
C609        C610   1.396       .  A
C609        H613   1.085       .  S
C610        C842   1.483       .  S
C610        C611   1.408       .  A
C611        H614   1.074       .  S
C615        C829   1.484       .  S
C615        C616   1.401       .  A
C616        H621   1.084       .  S
C617        C877   1.484       .  S
C617        C618   1.405       .  A
C618        C619   1.408       .  A
C618        H622   1.081       .  S
C619        C810   1.495       .  S
C619        C620   1.408       .  A
C620        H623   1.083       .  S
O624       Zr636   2.418       .  S
O624        C626   1.285       .  A
O625       Zr662   2.447       .  S
O625        C626   1.290       .  A
C626        C730   1.483       .  S
O627       Zr639   2.432       .  S
O627        C629   1.285       .  A
O628       Zr663   2.445       .  S
O628        C629   1.290       .  A
C629        C765   1.489       .  S
O630       Zr639   2.423       .  S
O630        C632   1.286       .  A
O631       Zr662   2.444   1_554  S
O631        C632   1.289       .  A
C632        C826   1.486       .  S
O633       Zr636   2.426       .  S
O633        C635   1.285       .  A
O634       Zr663   2.446   1_556  S
O634        C635   1.291       .  A
C635        C797   1.485       .  S
Zr636       O637   2.431       .  S
Zr636       O638   2.434       .  S
Zr636       O642   2.356       .  S
Zr636       O643   2.365   1_556  S
Zr636       O666   2.368       .  S
Zr636       O668   2.369       .  S
O637        H680   0.990       .  S
O638        H679   0.990       .  S
O638        H683   0.990       .  S
Zr639       O640   2.438       .  S
Zr639       O641   2.435       .  S
Zr639       O643   2.359       .  S
Zr639       O642   2.361   1_554  S
Zr639       O667   2.370       .  S
Zr639       O669   2.372       .  S
O640        H681   0.990       .  S
O640        H684   0.989       .  S
O641        H674   0.990       .  S
O642       Zr662   2.372       .  S
O643       Zr663   2.389       .  S
O643        H670   0.964       .  S
O644       Zr656   2.430       .  S
O644        C646   1.285       .  A
O645       Zr663   2.445   1_556  S
O645        C646   1.291       .  A
C646        C717   1.491       .  S
O647       Zr659   2.433       .  S
O647        C649   1.289       .  A
O648       Zr662   2.444   1_554  S
O648        C649   1.287       .  A
C649        C749   1.500       .  S
O650       Zr659   2.430       .  S
O650        C652   1.285       .  A
O651       Zr663   2.457       .  S
O651        C652   1.292       .  A
C652        C813   1.478       .  S
O653       Zr656   2.414       .  S
O653        C655   1.282       .  A
O654       Zr662   2.444       .  S
O654        C655   1.290       .  A
C655        C778   1.471       .  S
Zr656       O657   2.437       .  S
Zr656       O658   2.434       .  S
Zr656       O664   2.357       .  S
Zr656       O665   2.369       .  S
Zr656       O668   2.371       .  S
Zr656       O666   2.364       .  S
O657        H677   0.990       .  S
O657        H682   0.989       .  S
O658        H678   0.990       .  S
Zr659       O660   2.434       .  S
Zr659       O661   2.434       .  S
Zr659       O665   2.362   1_554  S
Zr659       O664   2.373   1_554  S
Zr659       O669   2.370       .  S
Zr659       O667   2.364       .  S
O660        H676   0.991       .  S
O661        H675   0.990       .  S
O661        H685   0.990       .  S
Zr662       O665   2.386       .  S
Zr662       O667   2.398   1_556  S
Zr662       O668   2.400       .  S
Zr663       O664   2.390   1_554  S
Zr663       O666   2.395   1_554  S
Zr663       O669   2.397       .  S
O664        H672   0.964       .  S
O667        H671   0.966       .  S
O668        H673   0.966       .  S
C686        C746   1.505       .  S
C686        C687   1.408       .  A
C686        C691   1.419       .  A
C687        C688   1.400       .  A
C687        H692   1.079       .  S
C688        C893   1.479       .  S
C688       C1721   1.391       .  A
C689       C1720   1.391   1_455  A
C689        C690   1.405       .  A
C689        H693   1.085       .  S
C690        C762   1.504       .  S
C690       C1723   1.415   1_455  A
C691       C1722   1.415       .  A
C691        H694   1.076       .  S
C695        C733   1.490       .  S
C695        C696   1.401       .  A
C696        H701   1.084       .  S
C697        C861   1.488       .  S
C697        C698   1.400       .  A
C698        C699   1.412       .  A
C698        H702   1.080       .  S
C699        C714   1.508       .  S
C699        C700   1.415       .  A
C700        H703   1.079       .  S
C704        C781   1.487       .  S
C704        C705   1.406       .  A
C704        C709   1.403       .  A
C705        C706   1.409       .  A
C705        H710   1.082       .  S
C706        C845   1.485       .  S
C706       C1739   1.402       .  A
C707       C1738   1.402   1_455  A
C707        C708   1.397       .  A
C707        H711   1.081       .  S
C708        C794   1.472       .  S
C708       C1741   1.398   1_455  A
C709       C1740   1.398       .  A
C709        H712   1.085       .  S
C713        C714   1.408       .  A
C713        C718   1.401       .  A
C713        H720   1.083       .  S
C714        C715   1.428       .  A
C715        C716   1.413       .  A
C715        C722   1.513       .  S
C716        C717   1.403       .  A
C716        H721   1.084       .  S
C717        C718   1.417       .  A
C718        C719   1.518       .  S
C719        F723   1.385       .  S
C719        F724   1.381       .  S
C719        F725   1.384       .  S
C722        F726   1.381       .  S
C722        F727   1.382       .  S
C722        F728   1.385       .  S
C729        C730   1.403       .  A
C729        C734   1.401       .  A
C729        H736   1.084       .  S
C730        C731   1.414       .  A
C731        C732   1.415       .  A
C731        C738   1.517       .  S
C732        C733   1.411       .  A
C732        H737   1.083       .  S
C733        C734   1.416       .  A
C734        C735   1.517       .  S
C735        F739   1.385       .  S
C735        F740   1.384       .  S
C735        F741   1.376       .  S
C738        F742   1.384       .  S
C738        F743   1.382       .  S
C738        F744   1.384       .  S
C745        C746   1.409       .  A
C745        C750   1.417       .  A
C745        H752   1.084       .  S
C746        C747   1.423       .  A
C747        C748   1.398       .  A
C747        C754   1.520       .  S
C748        C749   1.405       .  A
C748        H753   1.084       .  S
C749        C750   1.430       .  A
C750        C751   1.519       .  S
C751        F755   1.384       .  S
C751        F756   1.372       .  S
C751        F757   1.383       .  S
C754        F758   1.379       .  S
C754        F759   1.380       .  S
C754        F760   1.386       .  S
C761        C762   1.408       .  A
C761        C766   1.397       .  A
C761        H768   1.084       .  S
C762        C763   1.425       .  A
C763        C764   1.418       .  A
C763        C770   1.518       .  S
C764        C765   1.409       .  A
C764        H769   1.083       .  S
C765        C766   1.417       .  A
C766        C767   1.522       .  S
C767        F771   1.385       .  S
C767        F772   1.381       .  S
C767        F773   1.384       .  S
C770        F774   1.382       .  S
C770       F1807   1.383       .  S
C770        F776   1.385       .  S
F775       C1802   1.383       .  S
C777        C778   1.401       .  A
C777        C782   1.409       .  A
C777        H784   1.084       .  S
C778        C779   1.416       .  A
C779        C780   1.397       .  A
C779        C786   1.519       .  S
C780        C781   1.403       .  A
C780        H785   1.083       .  S
C781        C782   1.423       .  A
C782        C783   1.517       .  S
C783        F787   1.385       .  S
C783        F788   1.383       .  S
C783        F789   1.383       .  S
C786        F790   1.379   1_556  S
C786        F791   1.378       .  S
C786        F792   1.385       .  S
C793        C794   1.393       .  A
C793        C798   1.395       .  A
C793        H800   1.084       .  S
C794        C795   1.413       .  A
C795        C796   1.411       .  A
C795        C802   1.516       .  S
C796        C797   1.408       .  A
C796        H801   1.083       .  S
C797        C798   1.426       .  A
C798        C799   1.518       .  S
C799        F803   1.385       .  S
C799        F804   1.381       .  S
C799        F805   1.383       .  S
C802        F806   1.382       .  S
C802        F807   1.384       .  S
C802        F808   1.384       .  S
C809        C810   1.405       .  A
C809        C814   1.404       .  A
C809        H816   1.083       .  S
C810        C811   1.425       .  A
C811        C812   1.411       .  A
C811        C818   1.518       .  S
C812        C813   1.401       .  A
C812        H817   1.084       .  S
C813        C814   1.416       .  A
C814        C815   1.519       .  S
C815        F819   1.385       .  S
C815        F820   1.380       .  S
C815        F821   1.381   1_554  S
C818        F822   1.383       .  S
C818        F823   1.383       .  S
C818        F824   1.385       .  S
C825        C826   1.407       .  A
C825        C830   1.403       .  A
C825        H832   1.083       .  S
C826        C827   1.418       .  A
C827        C828   1.412       .  A
C827        C834   1.518       .  S
C828        C829   1.406       .  A
C828        H833   1.083       .  S
C829        C830   1.416       .  A
C830        C831   1.522       .  S
C831        F835   1.385       .  S
C831        F836   1.381       .  S
C831        F837   1.383       .  S
C834        F838   1.382       .  S
C834        F839   1.384       .  S
C834        F840   1.384       .  S
C841       C1874   1.403   1_455  A
C841        C846   1.405       .  A
C841        H848   1.084       .  S
C842       C1873   1.403       .  A
C842        C843   1.419       .  A
C843        C844   1.401       .  A
C843        C850   1.516       .  S
C844        C845   1.402       .  A
C844        H849   1.084       .  S
C845       C1878   1.423       .  A
C846       C1877   1.423   1_455  A
C846        C847   1.521       .  S
C847        F851   1.385       .  S
C847        F852   1.382       .  S
C847        F853   1.384       .  S
C850        F854   1.382       .  S
C850        F855   1.381       .  S
C850        F856   1.385       .  S
C857        C858   1.413       .  A
C857        C862   1.408       .  A
C857        H864   1.082       .  S
C858        C859   1.431       .  A
C859        C860   1.407       .  A
C859        C866   1.522       .  S
C860        C861   1.401       .  A
C860        H865   1.084       .  S
C861        C862   1.415       .  A
C862        C863   1.521       .  S
C863        F867   1.385       .  S
C863        F868   1.380       .  S
C866        F870   1.382       .  S
C866        F871   1.380       .  S
C866        F872   1.385       .  S
C873        C874   1.411       .  A
C873        C878   1.408       .  A
C873        H880   1.082       .  S
C874        C875   1.426       .  A
C875        C876   1.406       .  A
C875        C882   1.521       .  S
C876        C877   1.401       .  A
C876        H881   1.085       .  S
C877        C878   1.414       .  A
C878        C879   1.519       .  S
C879        F883   1.385       .  S
C879        F884   1.381       .  S
C882        F886   1.383       .  S
C882        F888   1.385       .  S
C889        C890   1.405       .  A
C889        C894   1.399       .  A
C889        H896   1.085       .  S
C890       C1923   1.419       .  A
C891       C1922   1.419       .  A
C891        C892   1.406       .  A
C891        C898   1.520       .  S
C892       C1925   1.405   1_455  A
C892        H897   1.084       .  S
C893       C1924   1.405       .  A
C893        C894   1.414       .  A
C894        C895   1.515       .  S
C895        F899   1.384       .  S
C895        F900   1.378       .  S
C895        F901   1.381       .  S
C898        F902   1.384       .  S
C898        F903   1.381       .  S
C898        F904   1.385       .  S
C905        C906   1.389       .  A
C905        C910   1.402       .  A
C905        H912   1.084       .  S
C906       C1939   1.412       .  A
C907       C1938   1.412       .  A
C907        C908   1.413       .  A
C907        C914   1.515       .  S
C908        C909   1.411       .  A
C908        H913   1.082       .  S
C909       C1942   1.435   1_455  A
C910       C1941   1.435       .  A
C910        C911   1.517       .  S
C911        F915   1.385       .  S
C911        F916   1.381       .  S
C911        F917   1.383       .  S
C914        F918   1.383       .  S
C914        F919   1.383       .  S
C914        F920   1.384       .  S
C921        C922   1.394       .  A
C921        C926   1.410       .  A
C921        H928   1.084       .  S
C922        C923   1.409       .  A
C923        C924   1.404       .  A
C923        C930   1.513       .  S
C924        C925   1.411       .  A
C924        H929   1.082       .  S
C925        C926   1.435       .  A
C926        C927   1.516       .  S
C927        F931   1.385       .  S
C927        F932   1.377       .  S
C927       F1965   1.381       .  S
C930        F934   1.380       .  S
C930       F1967   1.382       .  S
C930       F1968   1.385       .  S
F933       C1959   1.381       .  S
F935       C1962   1.382       .  S
F936       C1962   1.385       .  S
C937       C1970   1.415       .  A
C937        C942   1.397       .  A
C937        H944   1.083       .  S
C938       C1969   1.415   1_455  A
C938        C939   1.426       .  A
C939        C940   1.410       .  A
C939        C946   1.518       .  S
C940       C1973   1.403       .  A
C940        H945   1.083       .  S
C941       C1972   1.403       .  A
C941        C942   1.411       .  A
C942        C943   1.522       .  S
C943        F947   1.385       .  S
C943        F948   1.382       .  S
C943        F949   1.383       .  S
C946        F950   1.381       .  S
C946        F951   1.380       .  S
C946        F952   1.385       .  S
C953        C954   1.402       .  A
C953        C958   1.405       .  A
C953        H960   1.083       .  S
C954       C1987   1.409       .  A
C955       C1986   1.409   1_455  A
C955        C956   1.400       .  A
C955        C962   1.519       .  S
C956       C1989   1.407   1_455  A
C956        H961   1.083       .  S
C957       C1988   1.407       .  A
C957        C958   1.416       .  A
C958        C959   1.514       .  S
C959        F963   1.385       .  S
C959        F964   1.382       .  S
C959        F965   1.379       .  S
C962        F966   1.382       .  S
C962        F967   1.383       .  S
C962        F968   1.385       .  S
C969        C970   1.397       .  A
C969        C974   1.398       .  A
C969        H976   1.085       .  S
C971        C972   1.416       .  A
C971        C978   1.517       .  S
C972        C973   1.407       .  A
C972        H977   1.083       .  S
C974        C975   1.518       .  S
C975        F979   1.382       .  S
C975        F980   1.374       .  S
C975        F981   1.385       .  S
C978        F982   1.381       .  S
C978        F983   1.383       .  S
C978        F984   1.384       .  S
C985        C986   1.406       .  A
C985        C990   1.415       .  A
C985        H992   1.083       .  S
C987        C988   1.400       .  A
C987        C994   1.523       .  S
C988        H993   1.082       .  S
C989        C990   1.421       .  A
C990        C991   1.518       .  S
C991        F995   1.384       .  S
C991        F996   1.383       .  S
C991        F997   1.383       .  S
C994        F998   1.381       .  S
C994        F999   1.381       .  S
C994       F1000   1.385       .  S
C1001      C1006   1.408       .  A
C1001      H1008   1.083       .  S
C1002      C1003   1.412       .  A
C1003      C1004   1.403       .  A
C1003      C1010   1.520       .  S
C1004      H1009   1.082       .  S
C1005      C1006   1.412       .  A
C1006      C1007   1.514       .  S
C1007      F1011   1.385       .  S
C1007      F1012   1.384       .  S
C1007      F1013   1.381       .  S
C1010      F1014   1.383       .  S
C1010      F1015   1.381       .  S
C1010      F1016   1.385       .  S
C1017      C1018   1.401       .  A
C1017      C1022   1.407       .  A
C1017      H1024   1.085       .  S
C1018      C1019   1.415       .  A
C1019      C1020   1.402       .  A
C1019      C1026   1.517       .  S
C1020      C1021   1.408       .  A
C1020      H1025   1.084       .  S
C1021      C1022   1.426       .  A
C1022      C1023   1.521       .  S
C1023      F1029   1.383       .  S
C1026      F1030   1.384       .  S
C1026      F1031   1.379       .  S
C1026      F1032   1.383       .  S
O1033     Zr1045   2.415       .  S
O1033      C1551   1.282       .  A
O1034     Zr1071   2.452       .  S
O1034      C1035   1.292       .  A
C1035      O1549   1.282   1_545  A
C1035      C1534   1.470       .  S
O1036     Zr1048   2.434       .  S
O1037     Zr1072   2.463       .  S
O1037      C1038   1.295       .  A
C1038      C1425   1.505       .  S
O1039     Zr1048   2.428       .  S
O1039      C1557   1.288       .  A
O1040     Zr1071   2.440       .  S
O1040      C1041   1.288       .  A
C1041      O1555   1.288       .  A
C1041      C1505   1.492       .  S
O1042     Zr1045   2.416       .  S
O1043     Zr1072   2.444       .  S
O1043      C1044   1.288       .  A
C1044      C1454   1.501       .  S
Zr1045     O1046   2.435       .  S
Zr1045     O1047   2.435       .  S
Zr1045     O1051   2.363       .  S
Zr1045     O1052   2.363       .  S
Zr1045     O1593   2.366       .  S
O1046      H1089   0.990       .  S
O1047      H1088   0.990       .  S
O1047      H1092   0.990       .  S
Zr1048     O1049   2.433       .  S
Zr1048     O1050   2.434       .  S
Zr1048     O1052   2.366       .  S
Zr1048     O1051   2.356       .  S
Zr1048     O1592   2.366       .  S
O1049      H1090   0.988       .  S
O1049      H1093   0.988       .  S
O1050      H1083   0.990       .  S
O1051     Zr1587   2.372       .  S
O1052      H1079   0.965       .  S
O1053     Zr1065   2.412       .  S
O1053      C1571   1.283   1_545  A
O1054     Zr1072   2.459       .  S
O1054      C1055   1.293       .  A
C1055      O1569   1.283       .  A
C1055      C1521   1.480       .  S
O1056     Zr1068   2.426       .  S
O1057     Zr1071   2.446       .  S
O1057      C1058   1.290       .  A
C1058      C1438   1.474       .  S
O1059     Zr1068   2.440       .  S
O1059      C1577   1.288   1_545  A
O1060     Zr1072   2.459       .  S
O1060      C1061   1.293       .  A
C1061      O1575   1.288       .  A
C1061      C1489   1.487       .  S
O1062     Zr1065   2.412       .  S
O1063     Zr1071   2.435       .  S
O1063      C1064   1.288       .  A
C1064      C1473   1.477       .  S
Zr1065     O1066   2.438       .  S
Zr1065     O1067   2.434       .  S
Zr1065     O1073   2.357       .  S
Zr1065     O1074   2.367       .  S
Zr1065     O1591   2.368   1_545  S
O1066      H1086   0.990       .  S
O1066      H1091   0.990       .  S
O1067      H1087   0.990       .  S
Zr1068     O1069   2.432       .  S
Zr1068     O1070   2.434       .  S
Zr1068     O1074   2.372       .  S
Zr1068     O1073   2.356       .  S
Zr1068     O1594   2.370   1_545  S
O1069      H1085   0.990       .  S
O1070      H1084   0.990       .  S
O1070      H1094   0.990       .  S
Zr1071     O1567   2.372   1_545  S
Zr1071     O1076   2.396       .  S
Zr1071     O1077   2.395       .  S
Zr1072     O1589   2.382       .  S
Zr1072     O1075   2.400       .  S
Zr1072     O1078   2.399       .  S
O1073     Zr1588   2.382   1_545  S
O1073      H1081   0.961       .  S
O1075     Zr1581   2.368       .  S
O1076     Zr1564   2.366   1_545  S
O1076      H1080   0.966       .  S
O1077     Zr1561   2.366   1_545  S
O1077      H1082   0.966       .  S
O1078     Zr1584   2.370       .  S
C1095      C1470   1.468   1_455  S
C1095      C1096   1.397       .  A
C1095      C1100   1.396       .  A
C1096      C1097   1.402       .  A
C1096      H1101   1.085       .  S
C1097      C1406   1.483       .  S
C1097      C1098   1.401       .  A
C1098      C1099   1.405       .  A
C1098      H1102   1.080       .  S
C1099      C1457   1.476       .  S
C1099      C1100   1.400       .  A
C1100      H1103   1.084       .  S
C1104      C1518   1.478       .  S
C1104      C1105   1.398       .  A
C1104      C1109   1.400       .  A
C1105      C1106   1.403       .  A
C1105      H1110   1.079       .  S
C1106      C1537   1.497       .  S
C1106      C1107   1.411       .  A
C1107      C1108   1.409       .  A
C1107      H1111   1.083       .  S
C1108      C1390   1.499       .  S
C1108      C1109   1.405       .  A
C1109      H1112   1.081       .  S
C1113      C1486   1.487       .  S
C1113      C1114   1.404   1_565  A
C1113      C1118   1.402   1_565  A
C1114      C1115   1.415       .  A
C1114      H1119   1.081   1_545  S
C1115      C1374   1.508       .  S
C1115      C1116   1.410       .  A
C1116      C1117   1.403       .  A
C1116      H1120   1.076       .  S
C1117      C1502   1.483       .  S
C1117      C1118   1.399       .  A
C1118      H1121   1.084       .  S
C1122      C1441   1.511       .  S
C1122      C1123   1.417       .  A
C1122      C1127   1.413       .  A
C1123      C1124   1.403   1_655  A
C1123      H1128   1.083       .  S
C1124      C1422   1.477       .  S
C1124      C1125   1.394       .  A
C1125      C1126   1.396       .  A
C1125      H1129   1.085       .  S
C1126      C1358   1.483   1_455  S
C1126      C1127   1.408   1_455  A
C1127      H1130   1.074       .  S
C1131      C1345   1.484       .  S
C1131      C1132   1.401       .  A
C1131      C1652   1.403       .  A
C1132      C1649   1.403       .  A
C1132      H1137   1.084       .  S
C1133      C1393   1.484       .  S
C1133      C1648   1.403   1_545  A
C1133      C1134   1.405       .  A
C1134      C1135   1.408       .  A
C1134      H1138   1.081       .  S
C1135      C1326   1.495       .  S
C1135      C1136   1.408       .  A
C1136      C1647   1.403   1_545  A
C1136      H1139   1.083       .  S
O1140     Zr1152   2.418       .  S
O1140      C1142   1.285       .  A
O1141     Zr1178   2.447       .  S
O1141      C1142   1.290       .  A
C1142      C1246   1.483       .  S
O1143     Zr1155   2.432       .  S
O1143      C1145   1.285       .  A
O1144     Zr1179   2.445       .  S
O1144      C1145   1.290       .  A
C1145      C1281   1.489       .  S
O1146     Zr1155   2.423       .  S
O1146      C1148   1.286       .  A
O1147     Zr1178   2.444   1_554  S
O1147      C1148   1.289       .  A
C1148      C1342   1.486       .  S
O1149     Zr1152   2.426       .  S
O1149      C1151   1.285       .  A
O1150     Zr1179   2.446   1_556  S
O1150      C1151   1.291       .  A
C1151      C1313   1.485       .  S
Zr1152     O1153   2.431       .  S
Zr1152     O1154   2.434       .  S
Zr1152     O1158   2.356       .  S
Zr1152     O1159   2.365   1_556  S
Zr1152     O1182   2.368       .  S
Zr1152     O1184   2.369       .  S
O1153      H1196   0.990       .  S
O1154      H1195   0.990       .  S
O1154      H1199   0.990       .  S
Zr1155     O1156   2.438       .  S
Zr1155     O1157   2.435       .  S
Zr1155     O1159   2.359       .  S
Zr1155     O1158   2.361   1_554  S
Zr1155     O1183   2.370       .  S
Zr1155     O1185   2.372       .  S
O1156      H1197   0.990       .  S
O1156      H1200   0.989       .  S
O1157      H1190   0.990       .  S
O1158     Zr1178   2.372       .  S
O1159     Zr1179   2.389       .  S
O1159      H1186   0.964       .  S
O1160     Zr1172   2.430       .  S
O1160      C1162   1.285       .  A
O1161     Zr1179   2.445   1_556  S
O1161      C1162   1.291       .  A
C1162      C1233   1.491       .  S
O1163     Zr1175   2.433       .  S
O1163      C1165   1.289       .  A
O1164     Zr1178   2.444   1_554  S
O1164      C1165   1.287       .  A
C1165      C1265   1.500       .  S
O1166     Zr1175   2.430       .  S
O1166      C1168   1.285       .  A
O1167     Zr1179   2.457       .  S
O1167      C1168   1.292       .  A
C1168      C1329   1.478       .  S
O1169     Zr1172   2.414       .  S
O1169      C1171   1.282       .  A
O1170     Zr1178   2.444       .  S
O1170      C1171   1.290       .  A
C1171      C1294   1.471       .  S
Zr1172     O1173   2.437       .  S
Zr1172     O1174   2.434       .  S
Zr1172     O1180   2.357       .  S
Zr1172     O1181   2.369       .  S
Zr1172     O1184   2.371       .  S
Zr1172     O1182   2.364       .  S
O1173      H1193   0.990       .  S
O1173      H1198   0.989       .  S
O1174      H1194   0.990       .  S
Zr1175     O1176   2.434       .  S
Zr1175     O1177   2.434       .  S
Zr1175     O1181   2.362   1_554  S
Zr1175     O1180   2.373   1_554  S
Zr1175     O1185   2.370       .  S
Zr1175     O1183   2.364       .  S
O1176      H1192   0.991       .  S
O1177      H1191   0.990       .  S
O1177      H1201   0.990       .  S
Zr1178     O1181   2.386       .  S
Zr1178     O1183   2.398   1_556  S
Zr1178     O1184   2.400       .  S
Zr1179     O1180   2.390   1_554  S
Zr1179     O1182   2.395   1_554  S
Zr1179     O1185   2.397       .  S
O1180      H1188   0.964       .  S
O1183      H1187   0.966       .  S
O1184      H1189   0.966       .  S
C1202      C1262   1.505       .  S
C1202      C1203   1.408       .  A
C1202      C1207   1.419       .  A
C1203      C1204   1.400       .  A
C1203      H1208   1.079       .  S
C1204      C1409   1.479       .  S
C1205      C1206   1.405       .  A
C1205      H1209   1.085       .  S
C1206      C1278   1.504       .  S
C1207      H1210   1.076       .  S
C1211      C1249   1.490       .  S
C1211      C1212   1.401       .  A
C1211      C1732   1.412       .  A
C1212      C1729   1.400       .  A
C1212      H1217   1.084       .  S
C1213      C1377   1.488       .  S
C1213      C1728   1.400   1_545  A
C1213      C1214   1.400       .  A
C1214      C1215   1.412       .  A
C1214      H1218   1.080       .  S
C1215      C1230   1.508       .  S
C1215      C1216   1.415       .  A
C1216      C1727   1.412   1_545  A
C1216      H1219   1.079       .  S
C1220      C1297   1.487       .  S
C1220      C1221   1.406       .  A
C1220      C1225   1.403       .  A
C1221      C1222   1.409       .  A
C1221      H1226   1.082       .  S
C1222      C1361   1.485       .  S
C1223      C1224   1.397       .  A
C1223      H1227   1.081       .  S
C1224      C1310   1.472       .  S
C1225      H1228   1.085       .  S
C1229      C1230   1.408       .  A
C1229      C1234   1.401       .  A
C1229      H1236   1.083       .  S
C1230      C1231   1.428       .  A
C1231      C1232   1.413       .  A
C1231      C1238   1.513       .  S
C1232      C1233   1.403       .  A
C1232      H1237   1.084       .  S
C1233      C1234   1.417       .  A
C1234      C1235   1.518       .  S
C1235      F1239   1.385       .  S
C1235      F1240   1.381       .  S
C1235      F1241   1.384       .  S
C1238      F1242   1.381       .  S
C1238      F1243   1.382       .  S
C1238      F1244   1.385       .  S
C1245      C1246   1.403       .  A
C1245      C1250   1.401       .  A
C1245      H1252   1.084       .  S
C1246      C1247   1.414       .  A
C1247      C1248   1.415       .  A
C1247      C1254   1.517       .  S
C1248      C1249   1.411       .  A
C1248      H1253   1.083       .  S
C1249      C1250   1.416       .  A
C1250      C1251   1.517       .  S
C1251      F1255   1.385       .  S
C1251      F1256   1.384       .  S
C1251      F1257   1.376       .  S
C1254      F1258   1.384       .  S
C1254      F1259   1.382       .  S
C1254      F1260   1.384       .  S
C1261      C1262   1.409       .  A
C1261      C1266   1.417       .  A
C1261      H1268   1.084       .  S
C1262      C1263   1.423       .  A
C1263      C1264   1.398       .  A
C1263      C1270   1.520       .  S
C1264      C1265   1.405       .  A
C1264      H1269   1.084       .  S
C1265      C1266   1.430       .  A
C1266      C1267   1.519       .  S
C1267      F1271   1.384       .  S
C1267      F1272   1.372       .  S
C1267      F1273   1.383       .  S
C1270      F1274   1.379       .  S
C1270      F1275   1.380       .  S
C1270      F1276   1.386       .  S
C1277      C1278   1.408       .  A
C1277      C1282   1.397       .  A
C1277      H1284   1.084       .  S
C1278      C1279   1.425       .  A
C1279      C1280   1.418       .  A
C1279      C1286   1.518       .  S
C1280      C1281   1.409       .  A
C1280      H1285   1.083       .  S
C1281      C1282   1.417       .  A
C1282      C1283   1.522       .  S
C1283      F1287   1.385       .  S
C1283      F1288   1.381       .  S
C1283      F1289   1.384       .  S
C1286      F1290   1.382       .  S
C1286      F1292   1.385       .  S
C1293      C1294   1.401       .  A
C1293      C1298   1.409       .  A
C1293      H1300   1.084       .  S
C1294      C1295   1.416       .  A
C1295      C1296   1.397       .  A
C1295      C1302   1.519       .  S
C1296      C1297   1.403       .  A
C1296      H1301   1.083       .  S
C1297      C1298   1.423       .  A
C1298      C1299   1.517       .  S
C1299      F1303   1.385       .  S
C1299      F1304   1.383       .  S
C1299      F1305   1.383       .  S
C1302      F1306   1.379   1_556  S
C1302      F1307   1.378       .  S
C1302      F1308   1.385       .  S
C1309      C1310   1.393       .  A
C1309      C1314   1.395       .  A
C1309      H1316   1.084       .  S
C1310      C1311   1.413       .  A
C1311      C1312   1.411       .  A
C1311      C1318   1.516       .  S
C1312      C1313   1.408       .  A
C1312      H1317   1.083       .  S
C1313      C1314   1.426       .  A
C1314      C1315   1.518       .  S
C1315      F1319   1.385       .  S
C1315      F1320   1.381       .  S
C1315      F1321   1.383       .  S
C1318      F1322   1.382       .  S
C1318      F1323   1.384       .  S
C1318      F1324   1.384       .  S
C1325      C1326   1.405       .  A
C1325      C1330   1.404       .  A
C1325      H1332   1.083       .  S
C1326      C1327   1.425       .  A
C1327      C1328   1.411       .  A
C1327      C1334   1.518       .  S
C1328      C1329   1.401       .  A
C1328      H1333   1.084       .  S
C1329      C1330   1.416       .  A
C1330      C1331   1.519       .  S
C1331      F1335   1.385       .  S
C1331      F1336   1.380       .  S
C1331      F1337   1.381   1_554  S
C1334      F1338   1.383       .  S
C1334      F1339   1.383       .  S
C1334      F1340   1.385       .  S
C1341      C1342   1.407       .  A
C1341      C1346   1.403       .  A
C1341      H1348   1.083       .  S
C1342      C1343   1.418       .  A
C1343      C1344   1.412       .  A
C1343      C1350   1.518       .  S
C1344      C1345   1.406       .  A
C1344      H1349   1.083       .  S
C1345      C1346   1.416       .  A
C1346      C1347   1.522       .  S
C1347      F1351   1.385       .  S
C1347      F1352   1.381       .  S
C1347      F1353   1.383       .  S
C1350      F1354   1.382       .  S
C1350      F1355   1.384       .  S
C1350      F1356   1.384       .  S
C1357      C1362   1.405       .  A
C1357      H1364   1.084       .  S
C1358      C1359   1.419       .  A
C1359      C1360   1.401       .  A
C1359      C1366   1.516       .  S
C1360      C1361   1.402       .  A
C1360      H1365   1.084       .  S
C1362      C1363   1.521       .  S
C1363      F1367   1.385       .  S
C1363      F1368   1.382       .  S
C1363      F1369   1.384       .  S
C1366      F1370   1.382       .  S
C1366      F1371   1.381       .  S
C1366      F1372   1.385       .  S
C1373      C1374   1.413       .  A
C1373      C1378   1.408       .  A
C1373      H1380   1.082       .  S
C1374      C1375   1.431       .  A
C1375      C1376   1.407       .  A
C1375      C1382   1.522   1_545  S
C1376      C1377   1.401       .  A
C1376      H1381   1.084       .  S
C1377      C1378   1.415       .  A
C1378      C1379   1.521       .  S
C1379      F1383   1.385       .  S
C1379      F1384   1.380       .  S
C1379      F1901   1.384       .  S
C1382      F1386   1.382   1_565  S
C1382      F1387   1.380       .  S
C1382      F1388   1.385       .  S
F1385      C1895   1.384       .  S
C1389      C1390   1.411       .  A
C1389      C1394   1.408       .  A
C1389      H1396   1.082       .  S
C1390      C1391   1.426   1_545  A
C1391      C1392   1.406       .  A
C1391      C1398   1.521       .  S
C1392      C1393   1.401   1_565  A
C1392      H1397   1.085       .  S
C1393      C1394   1.414       .  A
C1394      C1395   1.519       .  S
C1395      F1399   1.385       .  S
C1395      F1400   1.381       .  S
C1395      F1917   1.384       .  S
C1398      F1402   1.383       .  S
C1398      F1919   1.382       .  S
C1398      F1404   1.385       .  S
F1401      C1911   1.384       .  S
F1403      C1914   1.382       .  S
C1405      C1406   1.405   1_655  A
C1405      C1410   1.399       .  A
C1405      H1412   1.085       .  S
C1407      C1408   1.406       .  A
C1407      C1414   1.520       .  S
C1408      H1413   1.084       .  S
C1409      C1410   1.414       .  A
C1410      C1411   1.515       .  S
C1411      F1415   1.384       .  S
C1411      F1416   1.378       .  S
C1411      F1417   1.381       .  S
C1414      F1418   1.384       .  S
C1414      F1419   1.381       .  S
C1414      F1420   1.385       .  S
C1421      C1422   1.389   1_655  A
C1421      C1426   1.402       .  A
C1421      H1428   1.084       .  S
C1423      C1424   1.413       .  A
C1423      C1430   1.515       .  S
C1424      C1425   1.411       .  A
C1424      H1429   1.082       .  S
C1426      C1427   1.517       .  S
C1427      F1431   1.385       .  S
C1427      F1432   1.381       .  S
C1427      F1433   1.383       .  S
C1430      F1434   1.383       .  S
C1430      F1435   1.383       .  S
C1430      F1436   1.384       .  S
C1437      C1438   1.394       .  A
C1437      C1442   1.410       .  A
C1437      H1444   1.084       .  S
C1438      C1439   1.409   1_655  A
C1439      C1440   1.404       .  A
C1439      C1446   1.513       .  S
C1440      C1441   1.411   1_455  A
C1440      H1445   1.082       .  S
C1441      C1442   1.435       .  A
C1442      C1443   1.516       .  S
C1443      F1447   1.385       .  S
C1443      F1448   1.377       .  S
C1446      F1450   1.380   1_455  S
C1453      C1458   1.397       .  A
C1453      H1460   1.083       .  S
C1454      C1455   1.426       .  A
C1455      C1456   1.410       .  A
C1455      C1462   1.518       .  S
C1456      H1461   1.083       .  S
C1457      C1458   1.411   1_455  A
C1458      C1459   1.522       .  S
C1459      F1463   1.385       .  S
C1459      F1464   1.382       .  S
C1459      F1465   1.383       .  S
C1462      F1466   1.381       .  S
C1462      F1467   1.380       .  S
C1462      F1468   1.385       .  S
C1469      C1470   1.402       .  A
C1469      C1474   1.405       .  A
C1469      H1476   1.083       .  S
C1471      C1472   1.400       .  A
C1471      C1478   1.519       .  S
C1472      H1477   1.083       .  S
C1473      C1474   1.416       .  A
C1474      C1475   1.514       .  S
C1475      F1479   1.385       .  S
C1475      F1480   1.382       .  S
C1475      F1481   1.379       .  S
C1478      F1482   1.382       .  S
C1478      F1483   1.383       .  S
C1478      F1484   1.385       .  S
C1485      C1486   1.397   1_545  A
C1485      C1490   1.398       .  A
C1485      H1492   1.085       .  S
C1486      C2003   1.419       .  A
C1487      C2002   1.419       .  A
C1487      C1488   1.416       .  A
C1487      C1494   1.517       .  S
C1488      C1489   1.407       .  A
C1488      H1493   1.083       .  S
C1489      C2006   1.423       .  A
C1490      C2005   1.423   1_545  A
C1490      C1491   1.518       .  S
C1491      F1495   1.382       .  S
C1491      F1496   1.374       .  S
C1491      F1497   1.385       .  S
C1494      F1498   1.381       .  S
C1494      F1499   1.383       .  S
C1494      F1500   1.384       .  S
C1501      C1502   1.406       .  A
C1501      C1506   1.415       .  A
C1501      H1508   1.083       .  S
C1502      C2019   1.415   1_545  A
C1503      C2018   1.415       .  A
C1503      C1504   1.400       .  A
C1503      C1510   1.523       .  S
C1504      C2021   1.407       .  A
C1504      H1509   1.082       .  S
C1505      C2020   1.407   1_545  A
C1505      C1506   1.421       .  A
C1506      C1507   1.518       .  S
C1507      F1511   1.384       .  S
C1507      F1512   1.383       .  S
C1507      F1513   1.383       .  S
C1510      F1514   1.381       .  S
C1510      F1515   1.381       .  S
C1510      F1516   1.385       .  S
C1517      C2034   1.406       .  A
C1517      C1522   1.408       .  A
C1517      H1524   1.083       .  S
C1518      C2033   1.406   1_545  A
C1518      C1519   1.412       .  A
C1519      C1520   1.403       .  A
C1519      C1526   1.520       .  S
C1520      C2037   1.408   1_545  A
C1520      H1525   1.082       .  S
C1521      C2036   1.408       .  A
C1521      C1522   1.412       .  A
C1522      C1523   1.514       .  S
C1523      F1527   1.385       .  S
C1523      F1528   1.384       .  S
C1523      F1529   1.381       .  S
C1526      F1530   1.383       .  S
C1526      F1531   1.381       .  S
C1526      F1532   1.385       .  S
C1533      C1534   1.401       .  A
C1533      C1538   1.407   1_545  A
C1533      H1540   1.085   1_545  S
C1534      C1535   1.415       .  A
C1535      C1536   1.402       .  A
C1535      C1542   1.517       .  S
C1536      C1537   1.408       .  A
C1536      H1541   1.084       .  S
C1537      C1538   1.426   1_545  A
C1538      C1539   1.521       .  S
C1539      F2059   1.385       .  S
C1539      F2060   1.382       .  S
C1539      F1545   1.383       .  S
C1542      F1546   1.384       .  S
C1542      F1547   1.379       .  S
C1542      F1548   1.383       .  S
F1543      C2055   1.385       .  S
F1544      C2055   1.382       .  S
O1549     Zr1561   2.415       .  S
O1550     Zr1587   2.452       .  S
O1550      C1551   1.292       .  A
C1551      C2050   1.470       .  S
O1552     Zr1564   2.434       .  S
O1553     Zr1588   2.463       .  S
O1553      C1554   1.295       .  A
C1554      C1941   1.505       .  S
O1555     Zr1564   2.428   1_545  S
O1556     Zr1587   2.440       .  S
O1556      C1557   1.288       .  A
C1557      C2021   1.492       .  S
O1558     Zr1561   2.416       .  S
O1559     Zr1588   2.444       .  S
O1559      C1560   1.288       .  A
C1560      C1970   1.501       .  S
Zr1561     O1562   2.435       .  S
Zr1561     O1563   2.435       .  S
Zr1561     O1567   2.363       .  S
Zr1561     O1568   2.363       .  S
O1562      H1605   0.990       .  S
O1563      H1604   0.990       .  S
O1563      H1608   0.990       .  S
Zr1564     O1565   2.433       .  S
Zr1564     O1566   2.434       .  S
Zr1564     O1568   2.366       .  S
Zr1564     O1567   2.356       .  S
O1565      H1606   0.988       .  S
O1565      H1609   0.988       .  S
O1566      H1599   0.990       .  S
O1568      H1595   0.965       .  S
O1569     Zr1581   2.412       .  S
O1570     Zr1588   2.459       .  S
O1570      C1571   1.293       .  A
C1571      C2037   1.480       .  S
O1572     Zr1584   2.426       .  S
O1573     Zr1587   2.446       .  S
O1573      C1574   1.290       .  A
C1574      C1954   1.474       .  S
O1575     Zr1584   2.440       .  S
O1576     Zr1588   2.459       .  S
O1576      C1577   1.293       .  A
C1577      C2005   1.487       .  S
O1578     Zr1581   2.412       .  S
O1579     Zr1587   2.435       .  S
O1579      C1580   1.288       .  A
C1580      C1989   1.477       .  S
Zr1581     O1582   2.438       .  S
Zr1581     O1583   2.434       .  S
Zr1581     O1589   2.357       .  S
Zr1581     O1590   2.367       .  S
O1582      H1602   0.990       .  S
O1582      H1607   0.990       .  S
O1583      H1603   0.990       .  S
Zr1584     O1585   2.432       .  S
Zr1584     O1586   2.434       .  S
Zr1584     O1590   2.372       .  S
Zr1584     O1589   2.356       .  S
O1585      H1601   0.990       .  S
O1586      H1600   0.990       .  S
O1586      H1610   0.990       .  S
Zr1587     O1592   2.396       .  S
Zr1587     O1593   2.395       .  S
Zr1588     O1591   2.400       .  S
Zr1588     O1594   2.399       .  S
O1589      H1597   0.959       .  S
O1592      H1596   0.966       .  S
O1593      H1598   0.966       .  S
C1611      C1986   1.468   1_455  S
C1611      C1612   1.397       .  A
C1611      C1616   1.396       .  A
C1612      C1613   1.402       .  A
C1612      H1617   1.085       .  S
C1613      C1922   1.483       .  S
C1613      C1614   1.401       .  A
C1614      C1615   1.405       .  A
C1614      H1618   1.080       .  S
C1615      C1973   1.476       .  S
C1615      C1616   1.400       .  A
C1616      H1619   1.084       .  S
C1620      C2034   1.478       .  S
C1620      C1621   1.398       .  A
C1620      C1625   1.400       .  A
C1621      C1622   1.403       .  A
C1621      H1626   1.079       .  S
C1622      C2053   1.497       .  S
C1622      C1623   1.411       .  A
C1623      C1624   1.409       .  A
C1623      H1627   1.083       .  S
C1624      C1906   1.499       .  S
C1624      C1625   1.405       .  A
C1625      H1628   1.081       .  S
C1629      C2002   1.487       .  S
C1629      C1630   1.404       .  A
C1629      C1634   1.402       .  A
C1630      C1631   1.415       .  A
C1630      H1635   1.081       .  S
C1631      C1890   1.508       .  S
C1631      C1632   1.410       .  A
C1632      C1633   1.403       .  A
C1632      H1636   1.076       .  S
C1633      C2018   1.483       .  S
C1633      C1634   1.399       .  A
C1634      H1637   1.084       .  S
C1638      C1957   1.511       .  S
C1638      C1639   1.417       .  A
C1638      C1643   1.413       .  A
C1639      C1640   1.403   1_655  A
C1639      H1644   1.083       .  S
C1640      C1938   1.477       .  S
C1640      C1641   1.394       .  A
C1641      C1642   1.396       .  A
C1641      H1645   1.085       .  S
C1642      C1874   1.483   1_455  S
C1642      C1643   1.408   1_455  A
C1643      H1646   1.074       .  S
C1647      C1861   1.484       .  S
C1647      C1648   1.401       .  A
C1648      H1653   1.084       .  S
C1649      C1909   1.484       .  S
C1649      C1650   1.405       .  A
C1650      C1651   1.408       .  A
C1650      H1654   1.081       .  S
C1651      C1842   1.495       .  S
C1651      C1652   1.408       .  A
C1652      H1655   1.083       .  S
O1656     Zr1668   2.418       .  S
O1656      C1658   1.285       .  A
O1657     Zr1694   2.447       .  S
O1657      C1658   1.290       .  A
C1658      C1762   1.483       .  S
O1659     Zr1671   2.432       .  S
O1659      C1661   1.285       .  A
O1660     Zr1695   2.445       .  S
O1660      C1661   1.290       .  A
C1661      C1797   1.489       .  S
O1662     Zr1671   2.423       .  S
O1662      C1664   1.286       .  A
O1663     Zr1694   2.444   1_554  S
O1663      C1664   1.289       .  A
C1664      C1858   1.486       .  S
O1665     Zr1668   2.426       .  S
O1665      C1667   1.285       .  A
O1666     Zr1695   2.446   1_556  S
O1666      C1667   1.291       .  A
C1667      C1829   1.485       .  S
Zr1668     O1669   2.431       .  S
Zr1668     O1670   2.434       .  S
Zr1668     O1674   2.356       .  S
Zr1668     O1675   2.365   1_556  S
Zr1668     O1698   2.368       .  S
Zr1668     O1700   2.369       .  S
O1669      H1712   0.990       .  S
O1670      H1711   0.990       .  S
O1670      H1715   0.990       .  S
Zr1671     O1672   2.438       .  S
Zr1671     O1673   2.435       .  S
Zr1671     O1675   2.359       .  S
Zr1671     O1674   2.361   1_554  S
Zr1671     O1699   2.370       .  S
Zr1671     O1701   2.372       .  S
O1672      H1713   0.990       .  S
O1672      H1716   0.989       .  S
O1673      H1706   0.990       .  S
O1674     Zr1694   2.372       .  S
O1675     Zr1695   2.389       .  S
O1675      H1702   0.964       .  S
O1676     Zr1688   2.430       .  S
O1676      C1678   1.285       .  A
O1677     Zr1695   2.445   1_556  S
O1677      C1678   1.291       .  A
C1678      C1749   1.491       .  S
O1679     Zr1691   2.433       .  S
O1679      C1681   1.289       .  A
O1680     Zr1694   2.444   1_554  S
O1680      C1681   1.287       .  A
C1681      C1781   1.500       .  S
O1682     Zr1691   2.430       .  S
O1682      C1684   1.285       .  A
O1683     Zr1695   2.457       .  S
O1683      C1684   1.292       .  A
C1684      C1845   1.478       .  S
O1685     Zr1688   2.414       .  S
O1685      C1687   1.282       .  A
O1686     Zr1694   2.444       .  S
O1686      C1687   1.290       .  A
C1687      C1810   1.471       .  S
Zr1688     O1689   2.437       .  S
Zr1688     O1690   2.434       .  S
Zr1688     O1696   2.357       .  S
Zr1688     O1697   2.369       .  S
Zr1688     O1700   2.371       .  S
Zr1688     O1698   2.364       .  S
O1689      H1709   0.990       .  S
O1689      H1714   0.989       .  S
O1690      H1710   0.990       .  S
Zr1691     O1692   2.434       .  S
Zr1691     O1693   2.434       .  S
Zr1691     O1697   2.362   1_554  S
Zr1691     O1696   2.373   1_554  S
Zr1691     O1701   2.370       .  S
Zr1691     O1699   2.364       .  S
O1692      H1708   0.991       .  S
O1693      H1707   0.990       .  S
O1693      H1717   0.990       .  S
Zr1694     O1697   2.386       .  S
Zr1694     O1699   2.398   1_556  S
Zr1694     O1700   2.400       .  S
Zr1695     O1696   2.390   1_554  S
Zr1695     O1698   2.395   1_554  S
Zr1695     O1701   2.397       .  S
O1696      H1704   0.964       .  S
O1699      H1703   0.966       .  S
O1700      H1705   0.966       .  S
C1718      C1778   1.505       .  S
C1718      C1719   1.408       .  A
C1718      C1723   1.419       .  A
C1719      C1720   1.400       .  A
C1719      H1724   1.079       .  S
C1720      C1925   1.479       .  S
C1721      C1722   1.405       .  A
C1721      H1725   1.085       .  S
C1722      C1794   1.504       .  S
C1723      H1726   1.076       .  S
C1727      C1765   1.490       .  S
C1727      C1728   1.401       .  A
C1728      H1733   1.084       .  S
C1729      C1893   1.488       .  S
C1729      C1730   1.400       .  A
C1730      C1731   1.412       .  A
C1730      H1734   1.080       .  S
C1731      C1746   1.508       .  S
C1731      C1732   1.415       .  A
C1732      H1735   1.079       .  S
C1736      C1813   1.487       .  S
C1736      C1737   1.406       .  A
C1736      C1741   1.403       .  A
C1737      C1738   1.409       .  A
C1737      H1742   1.082       .  S
C1738      C1877   1.485       .  S
C1739      C1740   1.397       .  A
C1739      H1743   1.081       .  S
C1740      C1826   1.472       .  S
C1741      H1744   1.085       .  S
C1745      C1746   1.408       .  A
C1745      C1750   1.401       .  A
C1745      H1752   1.083       .  S
C1746      C1747   1.428       .  A
C1747      C1748   1.413       .  A
C1747      C1754   1.513       .  S
C1748      C1749   1.403       .  A
C1748      H1753   1.084       .  S
C1749      C1750   1.417       .  A
C1750      C1751   1.518       .  S
C1751      F1755   1.385       .  S
C1751      F1756   1.381       .  S
C1751      F1757   1.384       .  S
C1754      F1758   1.381       .  S
C1754      F1759   1.382       .  S
C1754      F1760   1.385       .  S
C1761      C1762   1.403       .  A
C1761      C1766   1.401       .  A
C1761      H1768   1.084       .  S
C1762      C1763   1.414       .  A
C1763      C1764   1.415       .  A
C1763      C1770   1.517       .  S
C1764      C1765   1.411       .  A
C1764      H1769   1.083       .  S
C1765      C1766   1.416       .  A
C1766      C1767   1.517       .  S
C1767      F1771   1.385       .  S
C1767      F1772   1.384       .  S
C1767      F1773   1.376       .  S
C1770      F1774   1.384       .  S
C1770      F1775   1.382       .  S
C1770      F1776   1.384       .  S
C1777      C1778   1.409       .  A
C1777      C1782   1.417       .  A
C1777      H1784   1.084       .  S
C1778      C1779   1.423       .  A
C1779      C1780   1.398       .  A
C1779      C1786   1.520       .  S
C1780      C1781   1.405       .  A
C1780      H1785   1.084       .  S
C1781      C1782   1.430       .  A
C1782      C1783   1.519       .  S
C1783      F1787   1.384       .  S
C1783      F1788   1.372       .  S
C1783      F1789   1.383       .  S
C1786      F1790   1.379       .  S
C1786      F1791   1.380       .  S
C1786      F1792   1.386       .  S
C1793      C1794   1.408       .  A
C1793      C1798   1.397       .  A
C1793      H1800   1.084       .  S
C1794      C1795   1.425       .  A
C1795      C1796   1.418       .  A
C1795      C1802   1.518       .  S
C1796      C1797   1.409       .  A
C1796      H1801   1.083       .  S
C1797      C1798   1.417       .  A
C1798      C1799   1.522       .  S
C1799      F1803   1.385       .  S
C1799      F1804   1.381       .  S
C1799      F1805   1.384       .  S
C1802      F1806   1.382       .  S
C1802      F1808   1.385       .  S
C1809      C1810   1.401       .  A
C1809      C1814   1.409       .  A
C1809      H1816   1.084       .  S
C1810      C1811   1.416       .  A
C1811      C1812   1.397       .  A
C1811      C1818   1.519       .  S
C1812      C1813   1.403       .  A
C1812      H1817   1.083       .  S
C1813      C1814   1.423       .  A
C1814      C1815   1.517       .  S
C1815      F1819   1.385       .  S
C1815      F1820   1.383       .  S
C1815      F1821   1.383       .  S
C1818      F1822   1.379   1_556  S
C1818      F1823   1.378       .  S
C1818      F1824   1.385       .  S
C1825      C1826   1.393       .  A
C1825      C1830   1.395       .  A
C1825      H1832   1.084       .  S
C1826      C1827   1.413       .  A
C1827      C1828   1.411       .  A
C1827      C1834   1.516       .  S
C1828      C1829   1.408       .  A
C1828      H1833   1.083       .  S
C1829      C1830   1.426       .  A
C1830      C1831   1.518       .  S
C1831      F1835   1.385       .  S
C1831      F1836   1.381       .  S
C1831      F1837   1.383       .  S
C1834      F1838   1.382       .  S
C1834      F1839   1.384       .  S
C1834      F1840   1.384       .  S
C1841      C1842   1.405       .  A
C1841      C1846   1.404       .  A
C1841      H1848   1.083       .  S
C1842      C1843   1.425       .  A
C1843      C1844   1.411       .  A
C1843      C1850   1.518       .  S
C1844      C1845   1.401       .  A
C1844      H1849   1.084       .  S
C1845      C1846   1.416       .  A
C1846      C1847   1.519       .  S
C1847      F1851   1.385       .  S
C1847      F1852   1.380       .  S
C1847      F1853   1.381   1_554  S
C1850      F1854   1.383       .  S
C1850      F1855   1.383       .  S
C1850      F1856   1.385       .  S
C1857      C1858   1.407       .  A
C1857      C1862   1.403       .  A
C1857      H1864   1.083       .  S
C1858      C1859   1.418       .  A
C1859      C1860   1.412       .  A
C1859      C1866   1.518       .  S
C1860      C1861   1.406       .  A
C1860      H1865   1.083       .  S
C1861      C1862   1.416       .  A
C1862      C1863   1.522       .  S
C1863      F1867   1.385       .  S
C1863      F1868   1.381       .  S
C1863      F1869   1.383       .  S
C1866      F1870   1.382       .  S
C1866      F1871   1.384       .  S
C1866      F1872   1.384       .  S
C1873      C1878   1.405       .  A
C1873      H1880   1.084       .  S
C1874      C1875   1.419       .  A
C1875      C1876   1.401       .  A
C1875      C1882   1.516       .  S
C1876      C1877   1.402       .  A
C1876      H1881   1.084       .  S
C1878      C1879   1.521       .  S
C1879      F1883   1.385       .  S
C1879      F1884   1.382       .  S
C1879      F1885   1.384       .  S
C1882      F1886   1.382       .  S
C1882      F1887   1.381       .  S
C1882      F1888   1.385       .  S
C1889      C1890   1.413       .  A
C1889      C1894   1.408       .  A
C1889      H1896   1.082       .  S
C1890      C1891   1.431       .  A
C1891      C1892   1.407       .  A
C1891      C1898   1.522       .  S
C1892      C1893   1.401       .  A
C1892      H1897   1.084       .  S
C1893      C1894   1.415       .  A
C1894      C1895   1.521       .  S
C1895      F1899   1.385       .  S
C1895      F1900   1.380       .  S
C1898      F1902   1.382       .  S
C1898      F1903   1.380       .  S
C1898      F1904   1.385       .  S
C1905      C1906   1.411       .  A
C1905      C1910   1.408       .  A
C1905      H1912   1.082       .  S
C1906      C1907   1.426       .  A
C1907      C1908   1.406       .  A
C1907      C1914   1.521       .  S
C1908      C1909   1.401       .  A
C1908      H1913   1.085       .  S
C1909      C1910   1.414       .  A
C1910      C1911   1.519       .  S
C1911      F1915   1.385       .  S
C1911      F1916   1.381       .  S
C1914      F1918   1.383       .  S
C1914      F1920   1.385       .  S
C1921      C1922   1.405   1_655  A
C1921      C1926   1.399       .  A
C1921      H1928   1.085       .  S
C1923      C1924   1.406       .  A
C1923      C1930   1.520       .  S
C1924      H1929   1.084       .  S
C1925      C1926   1.414       .  A
C1926      C1927   1.515       .  S
C1927      F1931   1.384       .  S
C1927      F1932   1.378       .  S
C1927      F1933   1.381       .  S
C1930      F1934   1.384       .  S
C1930      F1935   1.381       .  S
C1930      F1936   1.385       .  S
C1937      C1938   1.389   1_655  A
C1937      C1942   1.402       .  A
C1937      H1944   1.084       .  S
C1939      C1940   1.413       .  A
C1939      C1946   1.515       .  S
C1940      C1941   1.411       .  A
C1940      H1945   1.082       .  S
C1942      C1943   1.517       .  S
C1943      F1947   1.385       .  S
C1943      F1948   1.381       .  S
C1943      F1949   1.383       .  S
C1946      F1950   1.383       .  S
C1946      F1951   1.383       .  S
C1946      F1952   1.384       .  S
C1953      C1954   1.394       .  A
C1953      C1958   1.410       .  A
C1953      H1960   1.084       .  S
C1954      C1955   1.409   1_655  A
C1955      C1956   1.404       .  A
C1955      C1962   1.513       .  S
C1956      C1957   1.411   1_455  A
C1956      H1961   1.082       .  S
C1957      C1958   1.435       .  A
C1958      C1959   1.516       .  S
C1959      F1963   1.385       .  S
C1959      F1964   1.377       .  S
C1962      F1966   1.380   1_455  S
C1969      C1974   1.397       .  A
C1969      H1976   1.083       .  S
C1970      C1971   1.426       .  A
C1971      C1972   1.410       .  A
C1971      C1978   1.518       .  S
C1972      H1977   1.083       .  S
C1973      C1974   1.411   1_455  A
C1974      C1975   1.522       .  S
C1975      F1979   1.385       .  S
C1975      F1980   1.382       .  S
C1975      F1981   1.383       .  S
C1978      F1982   1.381       .  S
C1978      F1983   1.380       .  S
C1978      F1984   1.385       .  S
C1985      C1986   1.402       .  A
C1985      C1990   1.405       .  A
C1985      H1992   1.083       .  S
C1987      C1988   1.400       .  A
C1987      C1994   1.519       .  S
C1988      H1993   1.083       .  S
C1989      C1990   1.416       .  A
C1990      C1991   1.514       .  S
C1991      F1995   1.385       .  S
C1991      F1996   1.382       .  S
C1991      F1997   1.379       .  S
C1994      F1998   1.382       .  S
C1994      F1999   1.383       .  S
C1994      F2000   1.385       .  S
C2001      C2002   1.397       .  A
C2001      C2006   1.398       .  A
C2001      H2008   1.085       .  S
C2003      C2004   1.416       .  A
C2003      C2010   1.517       .  S
C2004      C2005   1.407       .  A
C2004      H2009   1.083       .  S
C2006      C2007   1.518       .  S
C2007      F2011   1.382       .  S
C2007      F2012   1.374       .  S
C2007      F2013   1.385       .  S
C2010      F2014   1.381       .  S
C2010      F2015   1.383       .  S
C2010      F2016   1.384       .  S
C2017      C2018   1.406       .  A
C2017      C2022   1.415       .  A
C2017      H2024   1.083       .  S
C2019      C2020   1.400       .  A
C2019      C2026   1.523       .  S
C2020      H2025   1.082       .  S
C2021      C2022   1.421       .  A
C2022      C2023   1.518       .  S
C2023      F2027   1.384       .  S
C2023      F2028   1.383       .  S
C2023      F2029   1.383       .  S
C2026      F2030   1.381       .  S
C2026      F2031   1.381       .  S
C2026      F2032   1.385       .  S
C2033      C2038   1.408       .  A
C2033      H2040   1.083       .  S
C2034      C2035   1.412       .  A
C2035      C2036   1.403       .  A
C2035      C2042   1.520       .  S
C2036      H2041   1.082       .  S
C2037      C2038   1.412       .  A
C2038      C2039   1.514       .  S
C2039      F2043   1.385       .  S
C2039      F2044   1.384       .  S
C2039      F2045   1.381       .  S
C2042      F2046   1.383       .  S
C2042      F2047   1.381       .  S
C2042      F2048   1.385       .  S
C2049      C2050   1.401       .  A
C2049      C2054   1.407       .  A
C2049      H2056   1.085       .  S
C2050      C2051   1.415       .  A
C2051      C2052   1.402       .  A
C2051      C2058   1.517       .  S
C2052      C2053   1.408       .  A
C2052      H2057   1.084       .  S
C2053      C2054   1.426       .  A
C2054      C2055   1.521       .  S
C2055      F2061   1.383       .  S
C2058      F2062   1.384       .  S
C2058      F2063   1.379       .  S
C2058      F2064   1.383       .  S
