geometry optimzed in LAMMPS
_audit_creation_date              2020-11-30 
_audit_creation_method            'lammps2cif' 
_symmetry_space_group_name_H-M    'P1' 
_symmetry_Int_Tables_number       1 
_symmetry_cell_setting            triclinic 
loop_ 
_symmetry_equiv_pos_as_xyz 
  x,y,z 
_cell_length_a                    31.268910406941988 
_cell_length_b                    31.45835506054242 
_cell_length_c                    31.058675980169486 
_cell_angle_alpha                 90.22599486872929 
_cell_angle_beta                  90.5404171094507 
_cell_angle_gamma                 89.88196954808046 
loop_ 
_atom_site_label 
_atom_site_type_symbol 
_atom_site_fract_x 
_atom_site_fract_y 
_atom_site_fract_z 
_atom_site_charge 
C1          C  0.49064859  0.25213087  0.22986590     0.00690
C2          C  0.99227555  0.25105343  0.27442979     0.00690
O3          O  0.99758206  0.12293257  0.07054854    -0.86370
O4          O  0.00420559  0.38170075  0.07262486    -0.86530
O5          O  0.43298820  0.00444051  0.12323586    -0.88200
O6          O  0.07058277  0.00006763  0.12348588    -0.86960
O7          O  0.12229918  0.99768227  0.07138467    -0.86550
O8          O  0.37958461  0.00550418  0.07249846    -0.87920
O9          O  0.00208632  0.43383042  0.12442823    -0.86400
O10         O  0.00089106  0.07183608  0.12305185    -0.85980
Zr11       Zr  0.00158838  0.00224287  0.08789292     2.84310
O12         O  0.04461008  0.45913827  0.04437435    -1.07960
O13         O  0.45794346  0.04451083  0.04399262    -1.08690
C14         C  0.99833916  0.11080800  0.11032397     1.06740
C15         C  0.00390899  0.39454263  0.11218590     1.06690
C16         C  0.39334509  0.00705828  0.11186942     1.09670
C17         C  0.10961120  0.99747318  0.11085221     1.07450
H18         H  0.43989420  0.44155873  0.06490861     0.33010
O19         O  0.45762448  0.45892743  0.04675901    -1.28910
H20         H  0.06257113  0.06310384  0.06256756     0.32680
O21         O  0.04461265  0.04534048  0.04457085    -1.30590
O22         O  0.00107157  0.37975646  0.43424725    -0.86360
O23         O  0.00004957  0.12011613  0.42856091    -0.87860
O24         O  0.37873513  0.43219995  0.99840434    -0.86440
O25         O  0.12410382  0.43383656  0.99950964    -0.86490
O26         O  0.12302681  0.06965615  0.49991109    -0.86200
O27         O  0.37837157  0.07042675  0.50248842    -0.86000
O28         O  0.42817911  0.49789165  0.37932807    -0.86370
O29         O  0.07073808  0.49716043  0.38221230    -0.85840
O30         O  0.37699756  0.50071334  0.43176330    -0.86900
O31         O  0.12416497  0.49527068  0.43271935    -0.86060
O32         O  0.43192018  0.38178451  0.99978233    -0.86460
O33         O  0.43026507  0.12208330  0.49909809    -0.86180
O34         O  0.07096856  0.12132828  0.50006431    -0.85830
O35         O  0.07267643  0.38220708  0.99998460    -0.86240
O36         O  0.00221828  0.43033868  0.38104901    -0.86530
O37         O  0.49647138  0.06766318  0.37743084    -0.87870
Zr38       Zr  0.00141019  0.41530978  0.00199772     2.83100
Zr39       Zr  0.00033480  0.08724874  0.50001824     2.83500
Zr40       Zr  0.41358189  0.00086164  0.00213634     2.84090
Zr41       Zr  0.08647532  0.50132506  0.99953914     2.83360
Zr42       Zr  0.00195014  0.49976496  0.41614327     2.84220
O43         O  0.04303417  0.04396983  0.45645125    -1.08440
O44         O  0.45636743  0.45683708  0.45844756    -1.07940
C45         C  0.00114784  0.39157671  0.39444152     1.06720
C46         C  0.49820319  0.10689408  0.38948613     1.09330
C47         C  0.39218274  0.39327560  0.99806782     1.06890
C48         C  0.11217885  0.39472177  0.99906878     1.07250
C49         C  0.11047088  0.10873908  0.49955797     1.06830
C50         C  0.39092052  0.10945565  0.50054510     1.06380
C51         C  0.38911817  0.49957580  0.39220480     1.06810
C52         C  0.11027953  0.49404370  0.39330915     1.06320
H53         H  0.43795468  0.06135693  0.44022298     0.33000
O54         O  0.45608254  0.04402044  0.45839262    -1.29540
H55         H  0.06287278  0.43890306  0.44265323     0.33020
O56         O  0.04535341  0.45737700  0.46005628    -1.30920
C57         C  0.27106200  0.00154140  0.25216330     0.00690
C58         C  0.22847401  0.98913386  0.25151271     0.00690
C59         C  0.22862279  0.25017887  0.49596147     0.00690
C60         C  0.27239086  0.24995189  0.49112209     0.00690
C61         C  0.32484540  0.36043788  0.96776258    -0.12140
C62         C  0.35996877  0.35855715  0.99639578     0.04860
C63         C  0.36756590  0.31965262  0.51944021    -0.07430
C64         C  0.33754361  0.28709873  0.51793910    -0.08180
C65         C  0.30150024  0.28928589  0.98942400    -0.02730
C66         C  0.29658639  0.32557408  0.96245181     0.04090
N67         N  0.26468839  0.32725666  0.92880112     0.66600
H68         H  0.32107355  0.38812472  0.94742483     0.15500
H69         H  0.34412901  0.25942826  0.53744902     0.15210
N70         N  0.40625763  0.31296019  0.54356243     0.74300
O71         O  0.24902544  0.36251254  0.91732211    -0.39150
O72         O  0.25258246  0.29901541  0.41038240    -0.39090
O73         O  0.41057484  0.34318719  0.07798148    -0.39800
O74         O  0.42960908  0.28121412  0.53531958    -0.39860
C75         C  0.30230950  0.18715229  0.02921562    -0.12140
C76         C  0.29680605  0.20882465  0.49171450     0.04860
C77         C  0.32005313  0.19544537  0.45543862    -0.07430
C78         C  0.35000636  0.16257910  0.45932691    -0.08180
C79         C  0.35744150  0.14246286  0.49885922    -0.02730
C80         C  0.33241396  0.15398048  0.03395901     0.04090
N81         N  0.33807376  0.13432044  0.07558535     0.66600
H82         H  0.28437599  0.19795642  0.05686804     0.15500
H83         H  0.36830472  0.15320189  0.43136182     0.15210
N84         N  0.31343647  0.21484404  0.41434656     0.74300
O85         O  0.37450588  0.11778080  0.58691742    -0.39150
O86         O  0.30889853  0.13686368  0.10332268    -0.39090
O87         O  0.32944520  0.25077426  0.40688256    -0.39800
O88         O  0.29618023  0.19493865  0.88347117    -0.40000
C89         C  0.21293335  0.32658788  0.01528306    -0.12140
C90         C  0.20227248  0.29028831  0.99089766     0.04860
C91         C  0.16427094  0.29223154  0.46996063    -0.07430
C92         C  0.13600355  0.32621140  0.47505809    -0.08180
C93         C  0.14564106  0.36113140  0.99539191    -0.02730
C94         C  0.18699524  0.36327428  0.01482231     0.04090
N95         N  0.20415300  0.40198989  0.03266739     0.66600
H96         H  0.24216420  0.32689958  0.03414065     0.15500
H97         H  0.10750883  0.32740410  0.45491136     0.15210
N98         N  0.15357690  0.26000854  0.43879550     0.74300
O99         O  0.22896623  0.40019262  0.06490938    -0.39150
O100        O  0.22954774  0.39832709  0.57176957    -0.39090
O101        O  0.11316601  0.24313486  0.93822961    -0.39800
O102        O  0.18110899  0.24707648  0.41232326    -0.39860
C103        C  0.14219709  0.17491191  0.02983913    -0.12140
C104        C  0.14392431  0.14194757  0.49963996     0.04860
C105        C  0.17879063  0.14194395  0.47065292    -0.07430
C106        C  0.20724852  0.17650108  0.47128694    -0.08180
C107        C  0.20375956  0.20956159  0.50166940    -0.02730
C108        C  0.17264311  0.20764491  0.03172988     0.04090
N109        N  0.17069369  0.23826865  0.06621191     0.66600
H110        H  0.11688721  0.17416049  0.05343310     0.15500
H111        H  0.23081316  0.17868455  0.44614200     0.15210
N112        N  0.18553890  0.10840970  0.43964312     0.74300
O113        O  0.13550393  0.24645157  0.08405575    -0.39150
O114        O  0.20469385  0.25296721  0.08263859    -0.39090
O115        O  0.15448321  0.08908947  0.42240703    -0.39800
O116        O  0.22352238  0.09873887  0.92737527    -0.39860
C117        C  0.35669435  0.46688583  0.32774323    -0.12140
C118        C  0.35584215  0.49948188  0.35860411     0.04860
C119        C  0.32640592  0.03233124  0.35537279    -0.07430
C120        C  0.29688041  0.03117659  0.32128020    -0.08180
C121        C  0.29621304  0.49875079  0.29037823    -0.02730
C122        C  0.32723707  0.46602933  0.29357334     0.04090
N123        N  0.33016535  0.43297924  0.26149365     0.66600
H124        H  0.38058026  0.44197740  0.33025138     0.15500
H125        H  0.27548449  0.05788563  0.31626829     0.15210
N126        N  0.32817374  0.06935836  0.38233870     0.74300
O127        O  0.36021483  0.90582946  0.26335671    -0.39150
O128        O  0.29705615  0.41821198  0.24335699    -0.39090
O129        O  0.32889951  0.10575285  0.36541775    -0.39800
O130        O  0.32007285  0.56415660  0.42275065    -0.39860
C131        C  0.18214460  0.98548954  0.36608209    -0.12140
C132        C  0.14118911  0.48706561  0.35769854     0.04860
C133        C  0.12708945  0.47777615  0.31525044    -0.07430
C134        C  0.15680151  0.47112920  0.28297244    -0.08180
C135        C  0.20122588  0.47664707  0.28983881    -0.02730
C136        C  0.21252546  0.97486568  0.33455099     0.04090
N137        N  0.24783352  0.94915983  0.34874359     0.66600
H138        H  0.19228294  0.98662641  0.39950615     0.15500
H139        H  0.14365429  0.46439342  0.25140160     0.15210
N140        N  0.08275063  0.47575977  0.30333115     0.74300
O141        O  0.26555802  0.95652722  0.38471920    -0.39150
O142        O  0.25720214  0.41359341  0.32634185    -0.39090
O143        O  0.06107270  0.01052713  0.29422657    -0.39800
O144        O  0.06741132  0.44112544  0.28963792    -0.39860
C145        C  0.20006030  0.95945278  0.18337700    -0.12140
C146        C  0.20350186  0.99435028  0.21139077     0.04860
C147        C  0.17398737  0.52891162  0.20634537    -0.07430
C148        C  0.14471101  0.52885240  0.17218918    -0.08180
C149        C  0.14221343  0.99453907  0.14479281    -0.02730
C150        C  0.16821538  0.95798028  0.15109151     0.04090
N151        N  0.16042864  0.91824497  0.12868719     0.66600
H152        H  0.22022841  0.93199325  0.18917908     0.15500
H153        H  0.12367616  0.55581349  0.16790774     0.15210
N154        N  0.17262181  0.56273779  0.23767906     0.74300
O155        O  0.12976306  0.91418416  0.10230723    -0.39150
O156        O  0.18095900  0.38519121  0.13834793    -0.39090
O157        O  0.20654822  0.07645024  0.25663163    -0.39800
O158        O  0.13708194  0.57651711  0.25074088    -0.39860
C159        C  0.34310835  0.02314481  0.22174404    -0.12140
C160        C  0.29912436  0.01528850  0.21350926     0.04860
C161        C  0.28552550  0.51776441  0.16705961    -0.07430
C162        C  0.31700927  0.51050724  0.13574884    -0.08180
C163        C  0.36145405  0.01246376  0.14682462    -0.02730
C164        C  0.37379885  0.02232195  0.18953486     0.04090
N165        N  0.41692881  0.03326094  0.20097475     0.66600
H166        H  0.35482195  0.03010027  0.25382250     0.15500
H167        H  0.30713500  0.50685686  0.10242038     0.15210
N168        N  0.24870848  0.54079257  0.15220560     0.74300
O169        O  0.43311131  0.06672303  0.18594643    -0.39150
O170        O  0.43298687  0.52765442  0.23159729    -0.39090
O171        O  0.24448884  0.07863564  0.17321365    -0.39800
O172        O  0.23109339  0.53064008  0.11687533    -0.39860
C173        C  0.46211805  0.14596898  0.33009683    -0.12140
C174        C  0.49887486  0.13927867  0.35539271     0.04860
C175        C  0.03440655  0.16620478  0.35014596    -0.07430
C176        C  0.03078156  0.20185422  0.32341853    -0.08180
C177        C  0.49418468  0.20895151  0.29844849    -0.02730
C178        C  0.45922923  0.18036225  0.30128868     0.04090
N179        N  0.42044250  0.18591782  0.27664391     0.66600
H180        H  0.43478350  0.12529128  0.33423486     0.15500
H181        H  0.05765612  0.22323613  0.32105558     0.15210
N182        N  0.07489924  0.15658254  0.37055201     0.74300
O183        O  0.39835686  0.15397773  0.26584777    -0.39150
O184        O  0.40570006  0.22251349  0.26934606    -0.39090
O185        O  0.08432975  0.11872734  0.38002603    -0.39800
O186        O  0.10395326  0.18432134  0.37263360    -0.39860
C187        C  0.45991159  0.29713280  0.32738839    -0.12140
C188        C  0.99584970  0.28972578  0.30221813     0.04860
C189        C  0.03246539  0.31649394  0.30434360    -0.07430
C190        C  0.03256117  0.35055964  0.33406129    -0.08180
C191        C  0.99805164  0.35785656  0.36165685    -0.02730
C192        C  0.45897911  0.33142589  0.35616373     0.04090
N193        N  0.42032274  0.34047220  0.37951463     0.66600
H194        H  0.43163774  0.27763980  0.32382826     0.15500
H195        H  0.06052967  0.37061856  0.33718166     0.15210
N196        N  0.07018970  0.30904919  0.27873412     0.74300
O197        O  0.39407039  0.31110800  0.38717481    -0.39150
O198        O  0.41022232  0.37820350  0.38907250    -0.39090
O199        O  0.07720319  0.27344490  0.26132082    -0.39800
O200        O  0.09873458  0.33726568  0.27633265    -0.39860
C201        C  0.02748655  0.29294246  0.17351981    -0.12140
C202        C  0.99556630  0.29339253  0.20523557     0.04860
C203        C  0.47062543  0.32966902  0.20961846    -0.07430
C204        C  0.47578518  0.36408162  0.18134512    -0.08180
C205        C  0.00415454  0.36136132  0.14592070    -0.02730
C206        C  0.03180667  0.32604060  0.14394735     0.04090
N207        N  0.06545234  0.32383224  0.11309095     0.66600
H208        H  0.04871787  0.26579787  0.17082335     0.15500
H209        H  0.45443416  0.39116118  0.18380072     0.15210
N210        N  0.43702879  0.33206576  0.24037115     0.74300
O211        O  0.10380313  0.32357983  0.12609435    -0.39150
O212        O  0.05711325  0.31305585  0.07475086    -0.39090
O213        O  0.43322599  0.36499704  0.26334512    -0.39800
O214        O  0.40739876  0.30496144  0.23979429    -0.39860
C215        C  0.01874600  0.18107637  0.20874682    -0.12140
C216        C  0.98770830  0.21301018  0.20310746     0.04860
C217        C  0.46029247  0.20970977  0.16720564    -0.07430
C218        C  0.46366076  0.17606838  0.13777211    -0.08180
C219        C  0.99457830  0.14445189  0.14367441    -0.02730
C220        C  0.02154730  0.14635479  0.18036511     0.04090
N221        N  0.55477788  0.11481574  0.18630950     0.66600
H222        H  0.04214593  0.18372889  0.23448844     0.15500
H223        H  0.44203474  0.17504242  0.11030177     0.15210
N224        N  0.92778216  0.24165472  0.15908257     0.74300
O225        O  0.09244347  0.12757405  0.19253332    -0.39150
O226        O  0.54462279  0.07770970  0.19760335    -0.39090
O227        O  0.92573254  0.25951558  0.12286888    -0.39800
O228        O  0.39237122  0.23808070  0.17751119    -0.39860
C229        C  0.48936529  0.25284696  0.73043676     0.00690
C230        C  0.99315328  0.24998995  0.77394507     0.00690
O231        O  0.99704801  0.12266459  0.57012134    -0.86370
O232        O  0.00432055  0.38245426  0.57432377    -0.86530
O233        O  0.43289175  0.00526163  0.62372470    -0.88200
O234        O  0.07038010  0.99981690  0.62306959    -0.86960
O235        O  0.12204081  0.99724966  0.57093815    -0.86550
O236        O  0.37963678  0.00601334  0.57280441    -0.87920
O237        O  0.00381949  0.43483626  0.62597809    -0.86400
O238        O  0.00065615  0.07154361  0.62256851    -0.85980
Zr239      Zr  0.00134929  0.00196400  0.58751572     2.84310
O240        O  0.04583979  0.45915305  0.54695748    -1.07960
O241        O  0.45817182  0.04486768  0.54444646    -1.08690
C242        C  0.99795877  0.11050483  0.60987117     1.06740
C243        C  0.00492703  0.39547329  0.61380792     1.06690
C244        C  0.39327012  0.00781218  0.61219885     1.09670
C245        C  0.10940104  0.99711714  0.61042642     1.07450
H246        H  0.43984548  0.44008113  0.56320986     0.33010
O247        O  0.45723003  0.45783937  0.54511698    -1.28910
H248        H  0.06227312  0.06282785  0.56223540     0.32680
O249        O  0.04431418  0.04506860  0.54423502    -1.30590
O250        O  0.99947297  0.37850829  0.93328269    -0.86360
O251        O  0.00046077  0.12029059  0.92876407    -0.87860
O252        O  0.37819502  0.43122783  0.49805631    -0.86440
O253        O  0.12493718  0.43240739  0.50701685    -0.86490
O254        O  0.12353347  0.06994527  0.00000216    -0.86200
O255        O  0.37826446  0.07016315  0.00214015    -0.86000
O256        O  0.43373563  0.49714878  0.87932091    -0.86370
O257        O  0.06495353  0.49530457  0.87557679    -0.85840
O258        O  0.38109939  0.49950288  0.93046337    -0.86900
O259        O  0.11744614  0.49626726  0.92735442    -0.86060
O260        O  0.43160239  0.38108249  0.49848736    -0.86460
O261        O  0.43022284  0.12172674  0.99853326    -0.86180
O262        O  0.07153583  0.12168161  0.00016237    -0.85830
O263        O  0.07210792  0.38178054  0.50502496    -0.86240
O264        O  0.99755222  0.42902342  0.87996246    -0.86530
O265        O  0.49636366  0.06764701  0.87687601    -0.87870
Zr266      Zr  0.00201821  0.41595799  0.50383842     2.83100
Zr267      Zr  0.00072423  0.08764223  0.00034012     2.83500
Zr268      Zr  0.41377314  0.00122950  0.50258388     2.84090
Zr269      Zr  0.08881404  0.50121727  0.50280001     2.83360
Zr270      Zr  0.99799472  0.49915044  0.91383197     2.84220
O271        O  0.04344134  0.04424427  0.95686643    -1.08440
O272        O  0.45844191  0.45783302  0.95976066    -1.07940
C273        C  0.99806907  0.39029468  0.89358498     1.06720
C274        C  0.49800278  0.10686859  0.88907297     1.09330
C275        C  0.39184670  0.39240907  0.49767079     1.06890
C276        C  0.11173842  0.39350537  0.50643022     1.07250
C277        C  0.11105646  0.10906242  0.99953779     1.06830
C278        C  0.39088968  0.10917018  0.00004946     1.06380
C279        C  0.39450317  0.49806232  0.89126158     1.06810
C280        C  0.10435529  0.49391181  0.88764587     1.06320
H281        H  0.43778128  0.06099407  0.93976086     0.33000
O282        O  0.45590346  0.04360775  0.95788468    -1.29540
H283        H  0.06007177  0.43918018  0.93938384     0.33020
O284        O  0.04278640  0.45745294  0.95722167    -1.30920
C285        C  0.27065754  0.00232700  0.75192645     0.00690
C286        C  0.22821130  0.98947707  0.75131064     0.00690
C287        C  0.22931019  0.25050127  0.99293260     0.00690
C288        C  0.27325755  0.25018216  0.98877756     0.00690
C289        C  0.32242080  0.36112323  0.47170376    -0.12140
C290        C  0.35977665  0.35771286  0.49701466     0.04860
C291        C  0.36602624  0.32156382  0.02101857    -0.07430
C292        C  0.33652812  0.28852348  0.01827447    -0.08180
C293        C  0.30039583  0.28921497  0.49197939    -0.02730
C294        C  0.29367046  0.32672454  0.46718948     0.04090
N295        N  0.26011985  0.32978383  0.43545179     0.66600
H296        H  0.31720253  0.38963687  0.45289055     0.15500
H297        H  0.34159227  0.26164492  0.03932816     0.15210
N298        N  0.40260939  0.31642874  0.04860141     0.74300
O299        O  0.24193187  0.36501083  0.42850841    -0.39150
O300        O  0.25494823  0.29427187  0.90768722    -0.39090
O301        O  0.41648881  0.33782496  0.57392934    -0.39800
O302        O  0.42734350  0.28513486  0.04317616    -0.39860
C303        C  0.30210402  0.18681353  0.53072547    -0.12140
C304        C  0.29767639  0.20913933  0.99011610     0.04860
C305        C  0.32133288  0.19564760  0.95421518    -0.07430
C306        C  0.35104659  0.16266802  0.95846338    -0.08180
C307        C  0.35760819  0.14230619  0.99800776    -0.02730
C308        C  0.33263982  0.15399125  0.53513777     0.04090
N309        N  0.33913272  0.13456656  0.57677442     0.66600
H310        H  0.28449435  0.19751885  0.55862799     0.15500
H311        H  0.36967544  0.15324264  0.93073477     0.15210
N312        N  0.31528857  0.21508011  0.91309965     0.74300
O313        O  0.37322940  0.11742491  0.08630719    -0.39150
O314        O  0.31051857  0.13725882  0.60508501    -0.39090
O315        O  0.33565551  0.24834770  0.90404441    -0.39800
O316        O  0.29891339  0.19295274  0.38340069    -0.40000
C317        C  0.21033384  0.32323591  0.52512427    -0.12140
C318        C  0.20193097  0.29002058  0.49568285     0.04860
C319        C  0.16308525  0.29053708  0.96745924    -0.07430
C320        C  0.13479545  0.32468746  0.97173417    -0.08180
C321        C  0.14397576  0.35901271  0.50453848    -0.02730
C322        C  0.18195129  0.35788686  0.52983862     0.04090
N323        N  0.19123262  0.38993727  0.56179220     0.66600
H324        H  0.23809994  0.32111009  0.54610486     0.15500
H325        H  0.10434986  0.32335818  0.95478459     0.15210
N326        N  0.15124110  0.25641041  0.93901229     0.74300
O327        O  0.16160375  0.40616534  0.58381166    -0.39150
O328        O  0.20549797  0.43475902  0.00942183    -0.39090
O329        O  0.11514623  0.24858007  0.43398187    -0.39800
O330        O  0.17679588  0.24402757  0.91033812    -0.39860
C331        C  0.14137363  0.17399984  0.53097611    -0.12140
C332        C  0.14466720  0.14224003  0.99914613     0.04860
C333        C  0.17959799  0.14164163  0.97022462    -0.07430
C334        C  0.20818276  0.17611781  0.97022322    -0.08180
C335        C  0.20465321  0.20987821  0.99980594    -0.02730
C336        C  0.17180997  0.20662205  0.53355724     0.04090
N337        N  0.17027155  0.23611187  0.56901840     0.66600
H338        H  0.11615409  0.17272710  0.55464926     0.15500
H339        H  0.23177191  0.17774693  0.94505799     0.15210
N340        N  0.18618840  0.10761234  0.93976016     0.74300
O341        O  0.13497832  0.24540293  0.58611750    -0.39150
O342        O  0.20448363  0.24819009  0.58713588    -0.39090
O343        O  0.15500359  0.08874249  0.92224468    -0.39800
O344        O  0.22286294  0.10019713  0.42678424    -0.39860
C345        C  0.35608016  0.45927597  0.83431749    -0.12140
C346        C  0.36256395  0.49742096  0.85684795     0.04860
C347        C  0.32599829  0.03269776  0.85531466    -0.07430
C348        C  0.29640835  0.03167724  0.82125858    -0.08180
C349        C  0.30221119  0.49337293  0.78984509    -0.02730
C350        C  0.32575006  0.45668180  0.80101602     0.04090
N351        N  0.31701510  0.41631115  0.78112988     0.66600
H352        H  0.37375779  0.43109096  0.84363765     0.15500
H353        H  0.27478595  0.05825919  0.81654914     0.15210
N354        N  0.32751778  0.06947561  0.88267631     0.74300
O355        O  0.36148863  0.90954174  0.75965960    -0.39150
O356        O  0.27886397  0.40412151  0.77612174    -0.39090
O357        O  0.32715746  0.10607022  0.86616128    -0.39800
O358        O  0.34950859  0.57655386  0.90622716    -0.39860
C359        C  0.18241695  0.98553273  0.86609539    -0.12140
C360        C  0.13766365  0.48974822  0.85396349     0.04860
C361        C  0.13249321  0.46642862  0.81494824    -0.07430
C362        C  0.16711614  0.46322804  0.78638966    -0.08180
C363        C  0.20607198  0.48441531  0.79439993    -0.02730
C364        C  0.21266903  0.97497143  0.83441025     0.04090
N365        N  0.24810859  0.94932683  0.84841397     0.66600
H366        H  0.19268815  0.98669133  0.89947866     0.15500
H367        H  0.16168571  0.44863073  0.75514565     0.15210
N368        N  0.09254058  0.44757159  0.80222659     0.74300
O369        O  0.26584192  0.95655928  0.88441338    -0.39150
O370        O  0.26009922  0.44706347  0.86306889    -0.39090
O371        O  0.06096815  0.01014630  0.79456036    -0.39800
O372        O  0.09278790  0.41117405  0.78499657    -0.39860
C373        C  0.19995422  0.95950325  0.68317951    -0.12140
C374        C  0.20315741  0.99443071  0.71119114     0.04860
C375        C  0.15990279  0.53127508  0.72374390    -0.07430
C376        C  0.12976779  0.52628137  0.69024504    -0.08180
C377        C  0.14202722  0.99429876  0.64440074    -0.02730
C378        C  0.16824735  0.95789492  0.65074107     0.04090
N379        N  0.16087386  0.91818752  0.62815830     0.66600
H380        H  0.22027071  0.93216131  0.68902463     0.15500
H381        H  0.09629959  0.53007064  0.69730202     0.15210
N382        N  0.14723622  0.55187454  0.76318798     0.74300
O383        O  0.13022110  0.91392308  0.60179611    -0.39150
O384        O  0.23273915  0.49792853  0.58432041    -0.39090
O385        O  0.20572064  0.07679140  0.75610016    -0.39800
O386        O  0.10823128  0.55438902  0.77311856    -0.39860
C387        C  0.34240404  0.02501444  0.72161163    -0.12140
C388        C  0.29857895  0.01638928  0.71329957     0.04860
C389        C  0.30338120  0.46319268  0.68162814    -0.07430
C390        C  0.33327641  0.46651904  0.64824103    -0.08180
C391        C  0.36119120  0.01343067  0.64694470    -0.02730
C392        C  0.37325019  0.02406968  0.68953968     0.04090
N393        N  0.41621535  0.03565012  0.70095350     0.66600
H394        H  0.35384641  0.03250721  0.75367055     0.15500
H395        H  0.33590511  0.44111210  0.62473287     0.15210
N396        N  0.27671838  0.42587956  0.68350395     0.74300
O397        O  0.43221332  0.06884424  0.68515074    -0.39150
O398        O  0.42463141  0.56650582  0.67873947    -0.39090
O399        O  0.24340668  0.07865068  0.67225999    -0.39800
O400        O  0.23900073  0.42805015  0.69740546    -0.39860
C401        C  0.46207807  0.14617167  0.82960701    -0.12140
C402        C  0.49866928  0.13956184  0.85519080     0.04860
C403        C  0.03518602  0.16509640  0.84920461    -0.07430
C404        C  0.03182781  0.20025966  0.82186961    -0.08180
C405        C  0.49349290  0.21023062  0.79938158    -0.02730
C406        C  0.45899805  0.18108306  0.80146659     0.04090
N407        N  0.42023330  0.18695875  0.77700934     0.66600
H408        H  0.43493474  0.12512158  0.83309763     0.15500
H409        H  0.05913627  0.22094104  0.81851317     0.15210
N410        N  0.07574979  0.15518894  0.86929161     0.74300
O411        O  0.39966241  0.15506449  0.76335011    -0.39150
O412        O  0.40343420  0.22327561  0.77390228    -0.39090
O413        O  0.08490487  0.11729067  0.87885881    -0.39800
O414        O  0.10502067  0.18272140  0.87112711    -0.39860
C415        C  0.46188365  0.29690925  0.83108767    -0.12140
C416        C  0.99604865  0.28832025  0.80204835     0.04860
C417        C  0.03401858  0.31250814  0.80847644    -0.07430
C418        C  0.03292213  0.34659723  0.83801742    -0.08180
C419        C  0.99602924  0.35640133  0.86123634    -0.02730
C420        C  0.46194440  0.33111627  0.85997826     0.04090
N421        N  0.42503351  0.33853253  0.88646031     0.66600
H422        H  0.43445961  0.27598699  0.83018578     0.15500
H423        H  0.06153761  0.36493968  0.84441825     0.15210
N424        N  0.07429606  0.30182386  0.78841721     0.74300
O425        O  0.40135238  0.30795500  0.89702745    -0.39150
O426        O  0.41337676  0.37589992  0.89564491    -0.39090
O427        O  0.07658869  0.27482201  0.75841962    -0.39800
O428        O  0.10863957  0.31831807  0.80211004    -0.39860
C429        C  0.02867705  0.29295499  0.67308944    -0.12140
C430        C  0.99705349  0.29300466  0.70513999     0.04860
C431        C  0.46978327  0.33055974  0.70937330    -0.07430
C432        C  0.47475721  0.36405318  0.67989456    -0.08180
C433        C  0.00569957  0.36225454  0.64741715    -0.02730
C434        C  0.03294563  0.32674198  0.64430890     0.04090
N435        N  0.06555438  0.32477140  0.61238569     0.66600
H436        H  0.04962077  0.26569837  0.66950095     0.15500
H437        H  0.45387745  0.39151434  0.68208183     0.15210
N438        N  0.43783801  0.33502387  0.74182508     0.74300
O439        O  0.10389101  0.33208152  0.62302751    -0.39150
O440        O  0.05733953  0.30873563  0.57594111    -0.39090
O441        O  0.43411565  0.36988261  0.76172876    -0.39800
O442        O  0.40982831  0.30675579  0.74668725    -0.39860
C443        C  0.01996693  0.18074824  0.70777707    -0.12140
C444        C  0.98896290  0.21268760  0.70251702     0.04860
C445        C  0.45982229  0.21015926  0.66719558    -0.07430
C446        C  0.46411334  0.17664225  0.63768314    -0.08180
C447        C  0.99448514  0.14406118  0.64328328    -0.02730
C448        C  0.02213141  0.14596803  0.67948295     0.04090
N449        N  0.55424887  0.11539400  0.68782230     0.66600
H450        H  0.04371051  0.18339516  0.73320494     0.15500
H451        H  0.44301311  0.17548316  0.60980667     0.15210
N452        N  0.92853066  0.24158957  0.65989499     0.74300
O453        O  0.09298653  0.12690539  0.69121984    -0.39150
O454        O  0.54408714  0.07822464  0.69889436    -0.39090
O455        O  0.93274757  0.26724165  0.62918337    -0.39800
O456        O  0.39717970  0.24581159  0.68535496    -0.39860
C457        C  0.49233925  0.75296290  0.23049008     0.00690
C458        C  0.99293548  0.75016082  0.27401480     0.00690
O459        O  0.99653675  0.62262935  0.06941108    -0.86370
O460        O  0.00401877  0.88170685  0.07276007    -0.86530
O461        O  0.43260554  0.50677110  0.12334961    -0.88200
O462        O  0.07016192  0.50009211  0.12233938    -0.86960
O463        O  0.12175483  0.49717487  0.07009624    -0.86550
O464        O  0.37993742  0.50682844  0.07170035    -0.87920
O465        O  0.00217873  0.93360291  0.12484311    -0.86400
O466        O  0.99974727  0.57167575  0.12203856    -0.85980
Zr467      Zr  0.00100687  0.50215629  0.08706714     2.84310
O468        O  0.04494884  0.95916858  0.04512232    -1.07960
O469        O  0.45871630  0.54518450  0.04385903    -1.08690
C470        C  0.99722891  0.61059698  0.10924270     1.06740
C471        C  0.00387261  0.89435421  0.11238094     1.06690
C472        C  0.39311705  0.50909168  0.11126022     1.09670
C473        C  0.10915568  0.49723605  0.10964630     1.07450
H474        H  0.43978915  0.94010509  0.06385669     0.33010
O475        O  0.45725910  0.95771169  0.04568953    -1.28910
H476        H  0.06199356  0.56269131  0.06130869     0.32680
O477        O  0.04402350  0.54487170  0.04338071    -1.30590
O478        O  0.99929342  0.87993818  0.43215759    -0.86360
O479        O  0.00164317  0.62003990  0.42825864    -0.87860
O480        O  0.37796434  0.93163854  0.99826426    -0.86440
O481        O  0.12409555  0.93371587  0.00083612    -0.86490
O482        O  0.12472401  0.56951731  0.49955171    -0.86200
O483        O  0.37805622  0.56989691  0.50142593    -0.86000
O484        O  0.42851676  0.99789190  0.38073849    -0.86370
O485        O  0.06706168  0.99745044  0.37983048    -0.85840
O486        O  0.37735714  0.00115979  0.43320042    -0.86900
O487        O  0.12072872  0.99716142  0.43022099    -0.86060
O488        O  0.43122564  0.88126205  0.99796809    -0.86460
O489        O  0.42996089  0.62144395  0.49694629    -0.86180
O490        O  0.07262104  0.62122761  0.49962668    -0.85830
O491        O  0.07246148  0.88227289  0.00057384    -0.86240
O492        O  0.99869857  0.93083996  0.37920365    -0.86530
O493        O  0.49639033  0.56691150  0.37619560    -0.87870
Zr494      Zr  0.00142262  0.91576076  0.00240820     2.83100
Zr495      Zr  0.00170279  0.58760704  0.49984350     2.83500
Zr496      Zr  0.41466323  0.50136508  0.00168955     2.84090
Zr497      Zr  0.08717546  0.00171821  0.00098016     2.83360
Zr498      Zr  0.99828905  0.00010273  0.41478254     2.84220
O499        O  0.04583262  0.54393770  0.45791985    -1.08440
O500        O  0.45666206  0.95779149  0.45947490    -1.07940
C501        C  0.99859219  0.89198548  0.39244382     1.06720
C502        C  0.49819261  0.60616243  0.38829620     1.09330
C503        C  0.39147397  0.89276540  0.99709792     1.06890
C504        C  0.11201955  0.89463416  0.00003106     1.07250
C505        C  0.11212380  0.60858800  0.49887524     1.06830
C506        C  0.39064210  0.60889111  0.49868699     1.06380
C507        C  0.38943248  0.99947697  0.39367291     1.06810
C508        C  0.10677126  0.99531230  0.39093715     1.06320
H509        H  0.43774118  0.56042372  0.43890892     0.33000
O510        O  0.45584862  0.54307170  0.45708002    -1.29540
H511        H  0.06020114  0.93986980  0.43991385     0.33020
O512        O  0.04285299  0.95795984  0.45787816    -1.30920
C513        C  0.27066319  0.50344305  0.25048380     0.00690
C514        C  0.22845477  0.48992392  0.25045737     0.00690
C515        C  0.22931586  0.75047180  0.49189040     0.00690
C516        C  0.27321792  0.75016474  0.48752696     0.00690
C517        C  0.32375907  0.86016707  0.96758389    -0.12140
C518        C  0.35929525  0.85810064  0.99565049     0.04860
C519        C  0.36588761  0.82138010  0.51992555    -0.07430
C520        C  0.33647784  0.78831664  0.51709364    -0.08180
C521        C  0.30077983  0.78892827  0.98927165    -0.02730
C522        C  0.29542666  0.82535471  0.96255566     0.04090
N523        N  0.26296898  0.82727881  0.92946805     0.66600
H524        H  0.31967832  0.88796472  0.94745697     0.15500
H525        H  0.34167951  0.76132057  0.53796110     0.15210
N526        N  0.40260989  0.81619460  0.54731394     0.74300
O527        O  0.24688058  0.86258439  0.91877236    -0.39150
O528        O  0.25452381  0.79470530  0.40671875    -0.39090
O529        O  0.41111903  0.84247102  0.07640265    -0.39800
O530        O  0.42775565  0.78535918  0.54118362    -0.39860
C531        C  0.30239311  0.68663070  0.02868437    -0.12140
C532        C  0.29766887  0.70912199  0.48869606     0.04860
C533        C  0.32138559  0.69570392  0.45279045    -0.07430
C534        C  0.35098020  0.66258295  0.45698172    -0.08180
C535        C  0.35735662  0.64204789  0.49646521    -0.02730
C536        C  0.33298715  0.65386238  0.03329241     0.04090
N537        N  0.33886184  0.63403608  0.07479005     0.66600
H538        H  0.28430737  0.69701972  0.05639632     0.15500
H539        H  0.36970032  0.65322930  0.42929543     0.15210
N540        N  0.31550716  0.71532393  0.41173894     0.74300
O541        O  0.37316401  0.61755098  0.58466547    -0.39150
O542        O  0.30933077  0.63536821  0.10222186    -0.39090
O543        O  0.33515664  0.74916778  0.40326365    -0.39800
O544        O  0.29996644  0.69260661  0.88197090    -0.40000
C545        C  0.21253187  0.82601844  0.01628226    -0.12140
C546        C  0.20172893  0.78976668  0.99188327     0.04860
C547        C  0.16272855  0.79038796  0.46717147    -0.07430
C548        C  0.13434531  0.82442185  0.47176475    -0.08180
C549        C  0.14536738  0.86087680  0.99640541    -0.02730
C550        C  0.18675080  0.86283134  0.01581680     0.04090
N551        N  0.20414788  0.90149393  0.03354315     0.66600
H552        H  0.24183685  0.82622782  0.03502967     0.15500
H553        H  0.10378875  0.82301369  0.45503236     0.15210
N554        N  0.15078651  0.75632555  0.43870918     0.74300
O555        O  0.22911405  0.89962120  0.06566187    -0.39150
O556        O  0.20528540  0.93450936  0.50886618    -0.39090
O557        O  0.11230314  0.74292255  0.93949127    -0.39800
O558        O  0.17604667  0.74433284  0.40960530    -0.39860
C559        C  0.14163079  0.67429730  0.03010788    -0.12140
C560        C  0.14556428  0.64178386  0.49827592     0.04860
C561        C  0.18014752  0.64153701  0.46894650    -0.07430
C562        C  0.20838126  0.67626220  0.46880019    -0.08180
C563        C  0.20491314  0.70977637  0.49866991    -0.02730
C564        C  0.17217475  0.70696135  0.03228678     0.04090
N565        N  0.17020656  0.73739912  0.06693876     0.66600
H566        H  0.11626137  0.67342000  0.05362903     0.15500
H567        H  0.23168212  0.67826363  0.44338663     0.15210
N568        N  0.18679033  0.60763943  0.43830941     0.74300
O569        O  0.13502887  0.74540586  0.08488764    -0.39150
O570        O  0.20419434  0.75213403  0.08335763    -0.39090
O571        O  0.15571371  0.58771026  0.42186397    -0.39800
O572        O  0.22254282  0.59857673  0.92708601    -0.39860
C573        C  0.35529047  0.96446687  0.33130868    -0.12140
C574        C  0.35591415  0.99864321  0.36034243     0.04860
C575        C  0.32551359  0.53266012  0.35476238    -0.07430
C576        C  0.29614996  0.53204928  0.32046565    -0.08180
C577        C  0.29580416  0.99673564  0.29255331    -0.02730
C578        C  0.32550972  0.96284828  0.29732473     0.04090
N579        N  0.32660911  0.92764511  0.26736227     0.66600
H580        H  0.37834932  0.93897290  0.33517075     0.15500
H581        H  0.27387095  0.55820853  0.31650061     0.15210
N582        N  0.32632240  0.56880640  0.38298850     0.74300
O583        O  0.36617083  0.41816874  0.25126235    -0.39150
O584        O  0.29357286  0.91645696  0.24661169    -0.39090
O585        O  0.32578646  0.60575350  0.36730160    -0.39800
O586        O  0.32171327  0.06620148  0.42222401    -0.39860
C587        C  0.18517905  0.48364064  0.36658408    -0.12140
C588        C  0.13832705  0.98840777  0.35595113     0.04860
C589        C  0.12533539  0.97798032  0.31349371    -0.07430
C590        C  0.15601199  0.97008862  0.28233817    -0.08180
C591        C  0.20027677  0.97611341  0.29026613    -0.02730
C592        C  0.21464985  0.47387275  0.33380030     0.04090
N593        N  0.25057781  0.44806361  0.34614647     0.66600
H594        H  0.19609333  0.48389103  0.39978153     0.15500
H595        H  0.14385026  0.96241026  0.25058755     0.15210
N596        N  0.08128163  0.97627908  0.30043047     0.74300
O597        O  0.26865723  0.45384287  0.38223927    -0.39150
O598        O  0.25409601  0.91360533  0.33087362    -0.39090
O599        O  0.06254217  0.50982995  0.29619431    -0.39800
O600        O  0.06630110  0.94211746  0.28516584    -0.39860
C601        C  0.19920476  0.45927941  0.18297017    -0.12140
C602        C  0.20287971  0.49448383  0.21057625     0.04860
C603        C  0.17448449  0.02875856  0.20750664    -0.07430
C604        C  0.14519302  0.02888221  0.17338878    -0.08180
C605        C  0.14174339  0.49438391  0.14371474    -0.02730
C606        C  0.16756181  0.45775373  0.15044083     0.04090
N607        N  0.15994871  0.41800211  0.12802270     0.66600
H608        H  0.21927807  0.43180696  0.18904024     0.15500
H609        H  0.12403033  0.05580103  0.16935298     0.15210
N610        N  0.17281136  0.06220170  0.23928673     0.74300
O611        O  0.12924527  0.41380277  0.10170956    -0.39150
O612        O  0.18113372  0.88529992  0.13919648    -0.39090
O613        O  0.20659759  0.57786479  0.25371045    -0.39800
O614        O  0.13714732  0.07642333  0.25151493    -0.39860
C615        C  0.34096136  0.52926320  0.21958900    -0.12140
C616        C  0.29770382  0.51817786  0.21150192     0.04860
C617        C  0.28670969  0.01803272  0.16920537    -0.07430
C618        C  0.31756899  0.01111347  0.13717646    -0.08180
C619        C  0.36063394  0.51495248  0.14557952    -0.02730
C620        C  0.37198800  0.52814603  0.18765548     0.04090
N621        N  0.41433292  0.54213838  0.19852895     0.66600
H622        H  0.35174469  0.53846593  0.25144379     0.15500
H623        H  0.30728762  0.01008946  0.10378923     0.15210
N624        N  0.25038674  0.04271080  0.15599099     0.74300
O625        O  0.42901877  0.57491811  0.18071577    -0.39150
O626        O  0.43511212  0.01509410  0.23238062    -0.39090
O627        O  0.24168819  0.57736823  0.16749049    -0.39800
O628        O  0.23201568  0.03469138  0.12048475    -0.39860
C629        C  0.46264611  0.64602438  0.32889421    -0.12140
C630        C  0.49917334  0.63877813  0.35436613     0.04860
C631        C  0.03625439  0.66543041  0.34910926    -0.07430
C632        C  0.03217327  0.70101119  0.32234849    -0.08180
C633        C  0.49499987  0.70980844  0.29906952    -0.02730
C634        C  0.46009829  0.68108148  0.30087631     0.04090
N635        N  0.42156554  0.68739284  0.27612598     0.66600
H636        H  0.43522091  0.62532832  0.33231162     0.15500
H637        H  0.05893049  0.72248490  0.31959882     0.15210
N638        N  0.07699971  0.65608901  0.36912187     0.74300
O639        O  0.40040763  0.65573977  0.26280756    -0.39150
O640        O  0.40576149  0.72403535  0.27190516    -0.39090
O641        O  0.08654720  0.61838450  0.37906243    -0.39800
O642        O  0.10607949  0.68384034  0.37038108    -0.39860
C643        C  0.46304984  0.79604525  0.33090480    -0.12140
C644        C  0.99592679  0.78880603  0.30188471     0.04860
C645        C  0.03163176  0.81678720  0.30320904    -0.07430
C646        C  0.03076543  0.85144397  0.33218238    -0.08180
C647        C  0.99611730  0.85821320  0.35972913    -0.02730
C648        C  0.46199687  0.83085507  0.35893863     0.04090
N649        N  0.42464885  0.83813712  0.38478737     0.66600
H650        H  0.43603866  0.77459984  0.33008899     0.15500
H651        H  0.05810890  0.87240063  0.33477904     0.15210
N652        N  0.06937608  0.81005523  0.27746202     0.74300
O653        O  0.40221362  0.80721574  0.39692714    -0.39150
O654        O  0.41140612  0.87545383  0.39178914    -0.39090
O655        O  0.07768000  0.77420237  0.26119110    -0.39800
O656        O  0.09671077  0.83929429  0.27384168    -0.39860
C657        C  0.02771785  0.79222995  0.17278056    -0.12140
C658        C  0.99609599  0.79256624  0.20478603     0.04860
C659        C  0.47241677  0.83034990  0.20960356    -0.07430
C660        C  0.47664180  0.86373716  0.17998583    -0.08180
C661        C  0.00428255  0.86094097  0.14588249    -0.02730
C662        C  0.03185021  0.82555976  0.14342009     0.04090
N663        N  0.06523937  0.82354203  0.11228078     0.66600
H664        H  0.04887885  0.76506792  0.16975010     0.15500
H665        H  0.45538187  0.89090409  0.18227300     0.15210
N666        N  0.44054870  0.83431125  0.24205122     0.74300
O667        O  0.10370038  0.82380281  0.12493801    -0.39150
O668        O  0.05667397  0.81247823  0.07407323    -0.39090
O669        O  0.43861773  0.86795382  0.26421414    -0.39800
O670        O  0.41086379  0.80742074  0.24453148    -0.39860
C671        C  0.01880473  0.68029661  0.20777912    -0.12140
C672        C  0.98785287  0.71231804  0.20266220     0.04860
C673        C  0.46219623  0.71188750  0.16684398    -0.07430
C674        C  0.46586538  0.67894043  0.13666647    -0.08180
C675        C  0.99376836  0.64416070  0.14272571    -0.02730
C676        C  0.02110535  0.64573100  0.17919532     0.04090
N677        N  0.54907684  0.61126186  0.19013505     0.66600
H678        H  0.04248723  0.68274071  0.23328211     0.15500
H679        H  0.44507427  0.67891296  0.10853278     0.15210
N680        N  0.92724449  0.74123069  0.16006552     0.74300
O681        O  0.09188491  0.62650711  0.19107558    -0.39150
O682        O  0.53335711  0.57728890  0.20447486    -0.39090
O683        O  0.92711360  0.76239984  0.12571514    -0.39800
O684        O  0.39694778  0.74402284  0.18211326    -0.39860
C685        C  0.49023068  0.75190305  0.72992245     0.00690
C686        C  0.99429177  0.75075285  0.77447026     0.00690
O687        O  0.99808212  0.62368968  0.56968842    -0.86370
O688        O  0.00432355  0.88151956  0.57246022    -0.86530
O689        O  0.43225920  0.50245308  0.62301480    -0.88200
O690        O  0.07026171  0.50986355  0.62534946    -0.86960
O691        O  0.12220335  0.50689882  0.57409662    -0.86550
O692        O  0.37907205  0.50072916  0.57159492    -0.87920
O693        O  0.00255840  0.93351266  0.62445551    -0.86400
O694        O  0.99970263  0.57289037  0.62250881    -0.85980
Zr695      Zr  0.00193790  0.50313259  0.58834145     2.84310
O696        O  0.04459323  0.95884934  0.54468034    -1.07960
O697        O  0.45726544  0.54462432  0.54344932    -1.08690
C698        C  0.99795049  0.61176901  0.60953209     1.06740
C699        C  0.00445155  0.89428355  0.61205868     1.06690
C700        C  0.39271657  0.50198150  0.61097197     1.09670
C701        C  0.10964985  0.51115416  0.61342399     1.07450
H702        H  0.43980569  0.94052998  0.56437730     0.33010
O703        O  0.45734936  0.95811468  0.54626032    -1.28910
H704        H  0.06227033  0.56407898  0.56205595     0.32680
O705        O  0.04490538  0.54543303  0.54442955    -1.30590
O706        O  0.00001922  0.88022465  0.93269585    -0.86360
O707        O  0.00020048  0.61946706  0.92764137    -0.87860
O708        O  0.37821144  0.93199154  0.49855470    -0.86440
O709        O  0.12376135  0.93355511  0.50023810    -0.86490
O710        O  0.12294631  0.56953327  0.99886787    -0.86200
O711        O  0.37919600  0.57059608  0.00095638    -0.86000
O712        O  0.42832104  0.99809729  0.88020547    -0.86370
O713        O  0.06742854  0.99764722  0.88019781    -0.85840
O714        O  0.37720269  0.00102137  0.93274271    -0.86900
O715        O  0.12113357  0.99716667  0.93053446    -0.86060
O716        O  0.43148307  0.88162692  0.49830440    -0.86460
O717        O  0.43125283  0.62213676  0.99815243    -0.86180
O718        O  0.07089734  0.62121203  0.99974405    -0.85830
O719        O  0.07222627  0.88201623  0.49974118    -0.86240
O720        O  0.99951142  0.93108129  0.87970819    -0.86530
O721        O  0.49938872  0.56695233  0.87752126    -0.87870
Zr722      Zr  0.00109546  0.91540744  0.50196694     2.83100
Zr723      Zr  0.00012486  0.58697284  0.99921543     2.83500
Zr724      Zr  0.41339495  0.50053501  0.50131365     2.84090
Zr725      Zr  0.08675113  0.00143609  0.50058772     2.83360
Zr726      Zr  0.99876321  0.00028638  0.91523744     2.84220
O727        O  0.04259420  0.54351576  0.95541823    -1.08440
O728        O  0.45653773  0.95754984  0.95890633    -1.07940
C729        C  0.99947868  0.89225717  0.89299027     1.06720
C730        C  0.50015922  0.60636762  0.88915450     1.09330
C731        C  0.39174549  0.89313046  0.49731041     1.06890
C732        C  0.11176801  0.89446518  0.49922990     1.07250
C733        C  0.11044241  0.60866117  0.99902231     1.06830
C734        C  0.39186616  0.60962137  0.99927176     1.06380
C735        C  0.38925191  0.99965452  0.89319557     1.06810
C736        C  0.10712983  0.99536655  0.89125098     1.06320
H737        H  0.43993159  0.56088024  0.93911704     0.33000
O738        O  0.45774791  0.54373576  0.95777813    -1.29540
H739        H  0.06067201  0.94006860  0.94043268     0.33020
O740        O  0.04330370  0.95818936  0.95834481    -1.30920
C741        C  0.27411499  0.49438836  0.75166858     0.00690
C742        C  0.23048566  0.50071938  0.75477392     0.00690
C743        C  0.22883650  0.74998565  0.99358852     0.00690
C744        C  0.27272391  0.74972850  0.98872567     0.00690
C745        C  0.32441495  0.86050994  0.46704757    -0.12140
C746        C  0.35962901  0.85846314  0.49552959     0.04860
C747        C  0.36568813  0.82106459  0.02007707    -0.07430
C748        C  0.33615925  0.78807554  0.01767454    -0.08180
C749        C  0.30136886  0.78922776  0.48835480    -0.02730
C750        C  0.29623549  0.82564554  0.46164345     0.04090
N751        N  0.26412070  0.82748674  0.42822591     0.66600
H752        H  0.32049530  0.88832562  0.44691435     0.15500
H753        H  0.34152706  0.76114202  0.03858254     0.15210
N754        N  0.40268700  0.81582081  0.04704879     0.74300
O755        O  0.24784036  0.86271345  0.41756565    -0.39150
O756        O  0.25292577  0.79449006  0.90818614    -0.39090
O757        O  0.41051414  0.84269473  0.57694992    -0.39800
O758        O  0.42756424  0.78479601  0.04078490    -0.39860
C759        C  0.30214593  0.68697537  0.52770156    -0.12140
C760        C  0.29745742  0.70878496  0.98969610     0.04860
C761        C  0.32146049  0.69580285  0.95377678    -0.07430
C762        C  0.35186517  0.66343630  0.95803748    -0.08180
C763        C  0.35852156  0.64279375  0.99740099    -0.02730
C764        C  0.33213882  0.65373206  0.53236489     0.04090
N765        N  0.33784411  0.63408178  0.57393982     0.66600
H766        H  0.28421346  0.69772995  0.55537489     0.15500
H767        H  0.37090516  0.65471666  0.93037502     0.15210
N768        N  0.31489635  0.71480097  0.91250537     0.74300
O769        O  0.37454062  0.61844382  0.08580098    -0.39150
O770        O  0.30861569  0.63638999  0.60163976    -0.39090
O771        O  0.33223361  0.74993225  0.90424786    -0.39800
O772        O  0.29722788  0.69503813  0.38168837    -0.40000
C773        C  0.21280807  0.82644554  0.51470362    -0.12140
C774        C  0.20211174  0.79019224  0.49026770     0.04860
C775        C  0.16247997  0.79014565  0.96854838    -0.07430
C776        C  0.13434498  0.82442578  0.97282898    -0.08180
C777        C  0.14525022  0.86086773  0.49538852    -0.02730
C778        C  0.18675603  0.86306483  0.51451132     0.04090
N779        N  0.20399973  0.90180290  0.53220782     0.66600
H780        H  0.24217903  0.82680758  0.53333462     0.15500
H781        H  0.10387965  0.82318960  0.95591205     0.15210
N782        N  0.15042911  0.75605590  0.94014303     0.74300
O783        O  0.22898100  0.90003946  0.56432008    -0.39150
O784        O  0.20551797  0.93423641  0.01026116    -0.39090
O785        O  0.11282098  0.74274174  0.43839188    -0.39800
O786        O  0.17580174  0.74366186  0.91131056    -0.39860
C787        C  0.14318122  0.67421603  0.52922429    -0.12140
C788        C  0.14406905  0.64188131  0.99913581     0.04860
C789        C  0.17905702  0.64147126  0.97033040    -0.07430
C790        C  0.20778808  0.67577451  0.97065477    -0.08180
C791        C  0.20427293  0.70932965  0.00043025    -0.02730
C792        C  0.17334991  0.70714495  0.53096878     0.04090
N793        N  0.17155633  0.73756530  0.56564712     0.66600
H794        H  0.11814657  0.67313346  0.55310200     0.15500
H795        H  0.23135378  0.67753145  0.94546052     0.15210
N796        N  0.18528771  0.60790745  0.93937842     0.74300
O797        O  0.13650314  0.74541393  0.58390764    -0.39150
O798        O  0.20562231  0.75239945  0.58180165    -0.39090
O799        O  0.15381348  0.59035845  0.92102594    -0.39800
O800        O  0.22398535  0.59969053  0.42493095    -0.39860
C801        C  0.35532054  0.96527005  0.83043084    -0.12140
C802        C  0.35572299  0.99909982  0.85988650     0.04860
C803        C  0.34061953  0.53466217  0.84430087    -0.07430
C804        C  0.31103894  0.53224217  0.81041608    -0.08180
C805        C  0.29551847  0.99749898  0.79221296    -0.02730
C806        C  0.32550071  0.96385981  0.79652320     0.04090
N807        N  0.32694575  0.92922604  0.76597323     0.66600
H808        H  0.37854897  0.93986380  0.83388409     0.15500
H809        H  0.29373664  0.56058262  0.80072231     0.15210
N810        N  0.34736683  0.57474033  0.86569998     0.74300
O811        O  0.34694376  0.39008406  0.77502957    -0.39150
O812        O  0.29360707  0.91683737  0.74646639    -0.39090
O813        O  0.34483443  0.60894955  0.84469852    -0.39800
O814        O  0.32168847  0.06577494  0.92261343    -0.39860
C815        C  0.17823908  0.50544899  0.86414663    -0.12140
C816        C  0.13856218  0.98838940  0.85615638     0.04860
C817        C  0.12540881  0.97791588  0.81374327    -0.07430
C818        C  0.15595958  0.97017426  0.78242297    -0.08180
C819        C  0.20022752  0.97629306  0.79016659    -0.02730
C820        C  0.21330370  0.49818450  0.83770420     0.04090
N821        N  0.25091186  0.48611542  0.86123021     0.66600
H822        H  0.18435586  0.51794210  0.89612763     0.15500
H823        H  0.14368559  0.96251623  0.75070867     0.15210
N824        N  0.08130661  0.97599596  0.80088740     0.74300
O825        O  0.26433035  0.51006394  0.89116500    -0.39150
O826        O  0.25451250  0.91390199  0.83033528    -0.39090
O827        O  0.06023522  0.47099656  0.79628474    -0.39800
O828        O  0.06641999  0.94172427  0.78578710    -0.39860
C829        C  0.21594575  0.51882180  0.67345965    -0.12140
C830        C  0.20280661  0.51792915  0.71699937     0.04860
C831        C  0.17397718  0.02867103  0.70721655    -0.07430
C832        C  0.14477053  0.02862902  0.67303013    -0.08180
C833        C  0.14257662  0.51829833  0.64771309    -0.02730
C834        C  0.18672615  0.51934282  0.63912830     0.04090
N835        N  0.20285497  0.52223228  0.59613560     0.66600
H836        H  0.24835196  0.52135826  0.66388673     0.15500
H837        H  0.12350721  0.05542842  0.66892519     0.15210
N838        N  0.17206333  0.06211386  0.73897159     0.74300
O839        O  0.19372178  0.55433209  0.57354023    -0.39150
O840        O  0.18199227  0.88543211  0.63844419    -0.39090
O841        O  0.17412275  0.57348190  0.78447765    -0.39800
O842        O  0.13629158  0.07583805  0.75145289    -0.39860
C843        C  0.32601117  0.53320377  0.70695705    -0.12140
C844        C  0.30009159  0.49710837  0.71187880     0.04860
C845        C  0.28628626  0.01845393  0.66894352    -0.07430
C846        C  0.31735262  0.01148387  0.63713304    -0.08180
C847        C  0.36062487  0.50161578  0.64522659    -0.02730
C848        C  0.35706512  0.53528861  0.67507561     0.04090
N849        N  0.38483185  0.57156932  0.67408651     0.66600
H850        H  0.32338877  0.55947530  0.72936167     0.15500
H851        H  0.30720882  0.00989356  0.60372585     0.15210
N852        N  0.24978616  0.04267125  0.65533086     0.74300
O853        O  0.36933643  0.60832810  0.67907489    -0.39150
O854        O  0.43438142  0.01841122  0.73290594    -0.39090
O855        O  0.28908732  0.39146829  0.66660157    -0.39800
O856        O  0.23169456  0.03421238  0.61978590    -0.39860
C857        C  0.46358768  0.64524275  0.82975809    -0.12140
C858        C  0.50052037  0.63869354  0.85486432     0.04860
C859        C  0.03515930  0.66488385  0.84936956    -0.07430
C860        C  0.03203223  0.70081333  0.82305288    -0.08180
C861        C  0.49464597  0.70911916  0.79874782    -0.02730
C862        C  0.46012394  0.68003179  0.80145427     0.04090
N863        N  0.42101605  0.68578415  0.77746186     0.66600
H864        H  0.43650595  0.62423009  0.83377763     0.15500
H865        H  0.05922401  0.72182420  0.82083605     0.15210
N866        N  0.07553655  0.65424901  0.86933744     0.74300
O867        O  0.39955955  0.65384835  0.76542507    -0.39150
O868        O  0.40509437  0.72231515  0.77270655    -0.39090
O869        O  0.08494879  0.61586270  0.87631523    -0.39800
O870        O  0.10456744  0.68186435  0.87308829    -0.39860
C871        C  0.46191236  0.79557307  0.83029298    -0.12140
C872        C  0.99727894  0.78918636  0.80253947     0.04860
C873        C  0.03311092  0.81697089  0.80420756    -0.07430
C874        C  0.03213648  0.85161099  0.83315657    -0.08180
C875        C  0.99723422  0.85850686  0.86033110    -0.02730
C876        C  0.46098620  0.83044182  0.85831330     0.04090
N877        N  0.42369762  0.83781056  0.88424441     0.66600
H878        H  0.43490726  0.77412429  0.82963774     0.15500
H879        H  0.05955635  0.87244122  0.83602580     0.15210
N880        N  0.07105402  0.81003841  0.77882169     0.74300
O881        O  0.40095749  0.80697702  0.89605876    -0.39150
O882        O  0.41072461  0.87517432  0.89150404    -0.39090
O883        O  0.07955886  0.77400623  0.76306766    -0.39800
O884        O  0.09837163  0.83928040  0.77510581    -0.39860
C885        C  0.03017781  0.79331862  0.67368113    -0.12140
C886        C  0.99850591  0.79356812  0.70562975     0.04860
C887        C  0.47029035  0.82935820  0.70908381    -0.07430
C888        C  0.47504275  0.86319694  0.68002163    -0.08180
C889        C  0.00542860  0.86114393  0.64576293    -0.02730
C890        C  0.03361016  0.82620633  0.64371994     0.04090
N891        N  0.06673557  0.82408097  0.61228571     0.66600
H892        H  0.05162369  0.76634650  0.67091705     0.15500
H893        H  0.45396766  0.89048474  0.68251818     0.15210
N894        N  0.43827999  0.83309033  0.74142053     0.74300
O895        O  0.10528429  0.82351231  0.62465502    -0.39150
O896        O  0.05772746  0.81348189  0.57404390    -0.39090
O897        O  0.43636088  0.86646948  0.76398242    -0.39800
O898        O  0.40889986  0.80587980  0.74401105    -0.39860
C899        C  0.01950363  0.68038173  0.70863395    -0.12140
C900        C  0.98986237  0.71349748  0.70279109     0.04860
C901        C  0.45941975  0.70954020  0.66732186    -0.07430
C902        C  0.46303044  0.67623777  0.63746981    -0.08180
C903        C  0.99480994  0.64546015  0.64282781    -0.02730
C904        C  0.02077041  0.64564090  0.68029733     0.04090
N905        N  0.55414333  0.61474714  0.68559894     0.66600
H906        H  0.04239981  0.68159010  0.73492185     0.15500
H907        H  0.44139690  0.67531855  0.61000276     0.15210
N908        N  0.93049227  0.74389821  0.65959256     0.74300
O909        O  0.08834233  0.61825452  0.69522707    -0.39150
O910        O  0.54416115  0.57759564  0.69689523    -0.39090
O911        O  0.93264548  0.76716701  0.62677961    -0.39800
O912        O  0.39409353  0.74116772  0.68333989    -0.39860
C913        C  0.98943468  0.25280012  0.23022885     0.00690
C914        C  0.49304907  0.24991464  0.27402907     0.00690
O915        O  0.49703397  0.12260481  0.07015348    -0.86370
O916        O  0.50401398  0.38256369  0.07467562    -0.86530
O917        O  0.93300064  0.00493090  0.12343295    -0.88200
O918        O  0.57042233  0.99983401  0.12307560    -0.86960
O919        O  0.62210250  0.99724859  0.07096456    -0.86550
O920        O  0.87967669  0.00580813  0.07260697    -0.87920
O921        O  0.50340436  0.43493919  0.12633870    -0.86400
O922        O  0.50056565  0.07146810  0.12258662    -0.85980
Zr923      Zr  0.50142564  0.00192036  0.08746630     2.84310
O924        O  0.54560993  0.45923209  0.04728742    -1.07960
O925        O  0.95823414  0.04486341  0.04425676    -1.08690
C926        C  0.49788072  0.11043453  0.10990456     1.06740
C927        C  0.50455319  0.39557811  0.11416328     1.06690
C928        C  0.89336357  0.00744115  0.11199438     1.09670
C929        C  0.60944518  0.99713608  0.11044495     1.07450
H930        H  0.94000771  0.44002842  0.06323156     0.33010
O931        O  0.95735971  0.45780183  0.04512214    -1.28910
H932        H  0.56234773  0.06279696  0.06224761     0.32680
O933        O  0.54440724  0.04503393  0.04423257    -1.30590
O934        O  0.49942502  0.37848181  0.43333575    -0.86360
O935        O  0.50040231  0.12026978  0.42893115    -0.87860
O936        O  0.87829714  0.43117389  0.99819350    -0.86440
O937        O  0.62476010  0.43241689  0.00732427    -0.86490
O938        O  0.62347633  0.06990037  0.50013353    -0.86200
O939        O  0.87818202  0.07018441  0.50223906    -0.86000
O940        O  0.93414372  0.49698061  0.37895197    -0.86370
O941        O  0.56503288  0.49511220  0.37566892    -0.85840
O942        O  0.88145909  0.49916553  0.43006990    -0.86900
O943        O  0.61741401  0.49599276  0.42756167    -0.86060
O944        O  0.93173639  0.38107295  0.99834390    -0.86460
O945        O  0.93013169  0.12175638  0.49861579    -0.86180
O946        O  0.57149030  0.12164535  0.50029429    -0.85830
O947        O  0.57192562  0.38179830  0.00530732    -0.86240
O948        O  0.49755136  0.42901709  0.38003663    -0.86530
O949        O  0.99617692  0.06769631  0.37687274    -0.87870
Zr950      Zr  0.50182340  0.41601681  0.00415206     2.83100
Zr951      Zr  0.50066356  0.08763413  0.50051834     2.83500
Zr952      Zr  0.91384390  0.00124081  0.00235681     2.84090
Zr953      Zr  0.58861975  0.50123627  0.00309717     2.83360
Zr954      Zr  0.49811595  0.49914017  0.41392486     2.84220
O955        O  0.54332609  0.04421972  0.45702957    -1.08440
O956        O  0.95867446  0.45781095  0.45946159    -1.07940
C957        C  0.49803587  0.39028066  0.39363750     1.06720
C958        C  0.99787643  0.10691812  0.38905694     1.09330
C959        C  0.89197184  0.39236687  0.99765731     1.06890
C960        C  0.61156430  0.39351122  0.00672191     1.07250
C961        C  0.61100912  0.10901989  0.49966281     1.06830
C962        C  0.89080194  0.10919220  0.50015978     1.06380
C963        C  0.89491650  0.49776336  0.39087723     1.06810
C964        C  0.60439716  0.49363681  0.38782700     1.06320
H965        H  0.93762097  0.06104981  0.43981332     0.33000
O966        O  0.95576228  0.04366916  0.45792438    -1.29540
H967        H  0.56008498  0.43907132  0.43957856     0.33020
O968        O  0.54279380  0.45738464  0.45736904    -1.30920
C969        C  0.77067998  0.00183918  0.25200614     0.00690
C970        C  0.72812812  0.98932225  0.25137008     0.00690
C971        C  0.72925310  0.25049745  0.49329818     0.00690
C972        C  0.77319779  0.25023476  0.48913471     0.00690
C973        C  0.82239755  0.36122841  0.97192153    -0.12140
C974        C  0.85991627  0.35765336  0.99696479     0.04860
C975        C  0.86623977  0.32149128  0.52094451    -0.07430
C976        C  0.83665651  0.28851095  0.51837341    -0.08180
C977        C  0.80040997  0.28924183  0.99197086    -0.02730
C978        C  0.79359122  0.32687752  0.96739930     0.04090
N979        N  0.75990484  0.33011503  0.93583071     0.66600
H980        H  0.81707979  0.38984645  0.95329824     0.15500
H981        H  0.84184844  0.26158260  0.53933121     0.15210
N982        N  0.90302231  0.31623927  0.54822564     0.74300
O983        O  0.74163313  0.36536370  0.92923320    -0.39150
O984        O  0.75463023  0.29468594  0.40812634    -0.39090
O985        O  0.91727429  0.33729404  0.07322007    -0.39800
O986        O  0.92782357  0.28508071  0.54234131    -0.39860
C987        C  0.80212649  0.18682835  0.03064954    -0.12140
C988        C  0.79762845  0.20919994  0.49040752     0.04860
C989        C  0.82122259  0.19571157  0.45445910    -0.07430
C990        C  0.85089330  0.16268618  0.45864161    -0.08180
C991        C  0.85751590  0.14232083  0.49817297    -0.02730
C992        C  0.83269978  0.15402837  0.03503777     0.04090
N993        N  0.83927434  0.13464464  0.07668490     0.66600
H994        H  0.78455369  0.19753799  0.05857393     0.15500
H995        H  0.86946777  0.15325139  0.43087805     0.15210
N996        N  0.81518416  0.21520556  0.41336946     0.74300
O997        O  0.87327894  0.11742906  0.58645183    -0.39150
O998        O  0.81076216  0.13745831  0.10508851    -0.39090
O999        O  0.83508349  0.24883154  0.40460659    -0.39800
O1000       O  0.79909932  0.19279331  0.88321829    -0.40000
C1001       C  0.71020927  0.32321552  0.02533345    -0.12140
C1002       C  0.70186009  0.29007124  0.99579503     0.04860
C1003       C  0.66313920  0.29065742  0.46778797    -0.07430
C1004       C  0.63487165  0.32481882  0.47209190    -0.08180
C1005       C  0.64381971  0.35900941  0.00480634    -0.02730
C1006       C  0.68177478  0.35782442  0.03014885     0.04090
N1007       N  0.69097708  0.38975358  0.06225366     0.66600
H1008       H  0.73797653  0.32105207  0.04630892     0.15500
H1009       H  0.60454331  0.32364111  0.45491477     0.15210
N1010       N  0.65136892  0.25665507  0.43915312     0.74300
O1011       O  0.66127491  0.40600691  0.08415444    -0.39150
O1012       O  0.70505687  0.43469043  0.51223310    -0.39090
O1013       O  0.61510493  0.24876465  0.93392205    -0.39800
O1014       O  0.67706838  0.24425586  0.41061856    -0.39860
C1015       C  0.64139669  0.17397368  0.03099270    -0.12140
C1016       C  0.64462307  0.14219819  0.49929715     0.04860
C1017       C  0.67955567  0.14165607  0.47037192    -0.07430
C1018       C  0.70813091  0.17614782  0.47042671    -0.08180
C1019       C  0.70460032  0.20985160  0.50007697    -0.02730
C1020       C  0.67179585  0.20662626  0.03356462     0.04090
N1021       N  0.67023191  0.23610882  0.06902721     0.66600
H1022       H  0.61618808  0.17267509  0.05467642     0.15500
H1023       H  0.73172346  0.17782975  0.44526681     0.15210
N1024       N  0.68617093  0.10766705  0.43986457     0.74300
O1025       O  0.63491339  0.24547670  0.08603307    -0.39150
O1026       O  0.70442729  0.24811591  0.08722636    -0.39090
O1027       O  0.65500387  0.08871563  0.42240927    -0.39800
O1028       O  0.72293612  0.10027806  0.92676723    -0.39860
C1029       C  0.85583054  0.45898511  0.33438319    -0.12140
C1030       C  0.86304047  0.49727384  0.35643857     0.04860
C1031       C  0.82596524  0.03261098  0.35522654    -0.07430
C1032       C  0.79644338  0.03147410  0.32112753    -0.08180
C1033       C  0.80251125  0.49352867  0.28961790    -0.02730
C1034       C  0.82538916  0.45653946  0.30116255     0.04090
N1035       N  0.81588965  0.41609956  0.28177779     0.66600
H1036       H  0.87297619  0.43059802  0.34405139     0.15500
H1037       H  0.77502728  0.05816850  0.31612103     0.15210
N1038       N  0.82762438  0.06958644  0.38231607     0.74300
O1039       O  0.85961093  0.90611359  0.26309165    -0.39150
O1040       O  0.77750771  0.40464702  0.27676034    -0.39090
O1041       O  0.82713954  0.10606962  0.36555238    -0.39800
O1042       O  0.85264612  0.57710288  0.40479354    -0.39860
C1043       C  0.68217589  0.98560741  0.36616684    -0.12140
C1044       C  0.63778127  0.48960849  0.35423238     0.04860
C1045       C  0.63299962  0.46611062  0.31529421    -0.07430
C1046       C  0.66774093  0.46325356  0.28682788    -0.08180
C1047       C  0.70639670  0.48503219  0.29476422    -0.02730
C1048       C  0.71239230  0.97496801  0.33448094     0.04090
N1049       N  0.74762773  0.94906406  0.34848591     0.66600
H1050       H  0.69244242  0.98664504  0.39955571     0.15500
H1051       H  0.66258874  0.44839321  0.25566450     0.15210
N1052       N  0.59333283  0.44665692  0.30258646     0.74300
O1053       O  0.76551322  0.95628028  0.38441350    -0.39150
O1054       O  0.76143564  0.45094185  0.36539191    -0.39090
O1055       O  0.56080516  0.01076148  0.29468466    -0.39800
O1056       O  0.59412426  0.41029864  0.28529057    -0.39860
C1057       C  0.69982357  0.95935186  0.18328252    -0.12140
C1058       C  0.70317077  0.99432944  0.21120676     0.04860
C1059       C  0.65974961  0.53126910  0.22407312    -0.07430
C1060       C  0.62957747  0.52615442  0.19061997    -0.08180
C1061       C  0.64205708  0.99429740  0.14441594    -0.02730
C1062       C  0.66808608  0.95778335  0.15087960     0.04090
N1063       N  0.66045170  0.91801286  0.12849834     0.66600
H1064       H  0.72000542  0.93192884  0.18920728     0.15500
H1065       H  0.59610483  0.52981841  0.19772943     0.15210
N1066       N  0.64702381  0.55180549  0.26352675     0.74300
O1067       O  0.62989870  0.91387239  0.10199829    -0.39150
O1068       O  0.73157625  0.49707776  0.08423675    -0.39090
O1069       O  0.70600542  0.07666635  0.25610838    -0.39800
O1070       O  0.60803791  0.55389298  0.27362485    -0.39860
C1071       C  0.84280138  0.02342275  0.22173136    -0.12140
C1072       C  0.79882852  0.01554595  0.21338946     0.04860
C1073       C  0.80346338  0.46335694  0.18168211    -0.07430
C1074       C  0.83345417  0.46653670  0.14836995    -0.08180
C1075       C  0.86137118  0.01279884  0.14686971    -0.02730
C1076       C  0.87359451  0.02257272  0.18962526     0.04090
N1077       N  0.91672956  0.03331965  0.20124082     0.66600
H1078       H  0.85444611  0.03038130  0.25383325     0.15500
H1079       H  0.83618084  0.44100731  0.12501014     0.15210
N1080       N  0.77682819  0.42604332  0.18370978     0.74300
O1081       O  0.93307154  0.06681159  0.18645206    -0.39150
O1082       O  0.92455912  0.56681465  0.17822525    -0.39090
O1083       O  0.74402337  0.07865095  0.17280102    -0.39800
O1084       O  0.73899189  0.42834052  0.19727203    -0.39860
C1085       C  0.96200483  0.14620560  0.32953631    -0.12140
C1086       C  0.99857184  0.13959537  0.35515233     0.04860
C1087       C  0.53507863  0.16514075  0.34945582    -0.07430
C1088       C  0.53171766  0.20028585  0.32209175    -0.08180
C1089       C  0.99351104  0.21017860  0.29920242    -0.02730
C1090       C  0.95898488  0.18106037  0.30131286     0.04090
N1091       N  0.92025675  0.18688561  0.27677997     0.66600
H1092       H  0.93484015  0.12518647  0.33304649     0.15500
H1093       H  0.55898679  0.22102720  0.31881540     0.15210
N1094       N  0.57561580  0.15532318  0.36965265     0.74300
O1095       O  0.89963057  0.15496275  0.26327831    -0.39150
O1096       O  0.90353825  0.22321584  0.27343854    -0.39090
O1097       O  0.58476843  0.11746976  0.37940093    -0.39800
O1098       O  0.60488237  0.18286376  0.37140681    -0.39860
C1099       C  0.96182455  0.29709218  0.33055871    -0.12140
C1100       C  0.49593330  0.28829786  0.30207469     0.04860
C1101       C  0.53396596  0.31236710  0.30861714    -0.07430
C1102       C  0.53290127  0.34647209  0.33814294    -0.08180
C1103       C  0.49597634  0.35640320  0.36125476    -0.02730
C1104       C  0.96191261  0.33126580  0.35949256     0.04090
N1105       N  0.92489930  0.33881662  0.38581050     0.66600
H1106       H  0.93428067  0.27633335  0.32945071     0.15500
H1107       H  0.56156020  0.36472396  0.34461510     0.15210
N1108       N  0.57426943  0.30153576  0.28869195     0.74300
O1109       O  0.90076673  0.30840328  0.39583263    -0.39150
O1110       O  0.91365746  0.37619777  0.39544682    -0.39090
O1111       O  0.57652529  0.27469018  0.25854841    -0.39800
O1112       O  0.60865542  0.31773942  0.30263732    -0.39860
C1113       C  0.52869468  0.29322135  0.17357064    -0.12140
C1114       C  0.49683002  0.29300335  0.20535884     0.04860
C1115       C  0.96975300  0.33046388  0.20911128    -0.07430
C1116       C  0.97479568  0.36399334  0.17968609    -0.08180
C1117       C  0.50533667  0.36234761  0.14776265    -0.02730
C1118       C  0.53289765  0.32704913  0.14483425     0.04090
N1119       N  0.56573354  0.32530930  0.11312615     0.66600
H1120       H  0.54984373  0.26610468  0.17010661     0.15500
H1121       H  0.95381360  0.39138639  0.18175752     0.15210
N1122       N  0.93750458  0.33474203  0.24129480     0.74300
O1123       O  0.60410135  0.33170167  0.12427246    -0.39150
O1124       O  0.55761499  0.30996554  0.07635724    -0.39090
O1125       O  0.93317027  0.36967923  0.26092903    -0.39800
O1126       O  0.90970514  0.30624157  0.24597777    -0.39860
C1127       C  0.51993134  0.18072917  0.20778403    -0.12140
C1128       C  0.48892600  0.21266857  0.20252757     0.04860
C1129       C  0.95989712  0.21015079  0.16698882    -0.07430
C1130       C  0.96410542  0.17660361  0.13751071    -0.08180
C1131       C  0.49438066  0.14398150  0.14333667    -0.02730
C1132       C  0.52207976  0.14593248  0.17949753     0.04090
N1133       N  0.05430044  0.11536818  0.18755500     0.66600
H1134       H  0.54367234  0.18338009  0.23321606     0.15500
H1135       H  0.94300349  0.17547898  0.10963386     0.15210
N1136       N  0.42840363  0.24148523  0.15997709     0.74300
O1137       O  0.59296867  0.12693268  0.19113484    -0.39150
O1138       O  0.04420942  0.07818037  0.19862929    -0.39090
O1139       O  0.43333581  0.26810108  0.13023201    -0.39800
O1140       O  0.89678952  0.24527002  0.18449277    -0.39860
C1141       C  0.99077623  0.25219502  0.72977323     0.00690
C1142       C  0.49220669  0.25111516  0.77464429     0.00690
O1143       O  0.49756923  0.12296712  0.57071133    -0.86370
O1144       O  0.50395653  0.38168130  0.57269595    -0.86530
O1145       O  0.93291153  0.00474321  0.62337626    -0.88200
O1146       O  0.57051067  0.00004855  0.62364314    -0.86960
O1147       O  0.62220848  0.99765501  0.57151963    -0.86550
O1148       O  0.87955304  0.00568357  0.57257232    -0.87920
O1149       O  0.50189679  0.43381010  0.62449845    -0.86400
O1150       O  0.50095913  0.07189258  0.62323116    -0.85980
Zr1151     Zr  0.50148911  0.00226531  0.58812426     2.84310
O1152       O  0.54446918  0.45911109  0.54448690    -1.07960
O1153       O  0.95789302  0.04455592  0.54402362    -1.08690
C1154       C  0.49838216  0.11086120  0.61049269     1.06740
C1155       C  0.50368232  0.39451888  0.61225611     1.06690
C1156       C  0.89327502  0.00737892  0.61194694     1.09670
C1157       C  0.60953164  0.99744719  0.61098981     1.07450
H1158       H  0.94015465  0.44144867  0.56458257     0.33010
O1159       O  0.95784811  0.45885212  0.54643392    -1.28910
H1160       H  0.56250712  0.06308411  0.56273092     0.32680
O1161       O  0.54453015  0.04532122  0.54475236    -1.30590
O1162       O  0.50089931  0.37986545  0.93449540    -0.86360
O1163       O  0.50013143  0.12006326  0.92857810    -0.87860
O1164       O  0.87888157  0.43215379  0.49823944    -0.86440
O1165       O  0.62405358  0.43378723  0.49994034    -0.86490
O1166       O  0.62310843  0.06962460  0.99991665    -0.86200
O1167       O  0.87842390  0.07044460  0.00231482    -0.86000
O1168       O  0.92789404  0.49755848  0.87945555    -0.86370
O1169       O  0.57039599  0.49730896  0.88251278    -0.85840
O1170       O  0.87684615  0.50032748  0.93203149    -0.86900
O1171       O  0.62387943  0.49537313  0.93295557    -0.86060
O1172       O  0.93207035  0.38174723  0.49960441    -0.86460
O1173       O  0.93031012  0.12210534  0.99891568    -0.86180
O1174       O  0.57103574  0.12128449  0.00008259    -0.85830
O1175       O  0.57259518  0.38218242  0.50044761    -0.86240
O1176       O  0.50200096  0.43043404  0.88128224    -0.86530
O1177       O  0.99665307  0.06768314  0.87725379    -0.87870
Zr1178     Zr  0.50129889  0.41528749  0.50207467     2.83100
Zr1179     Zr  0.50041501  0.08720105  0.00002473     2.83500
Zr1180     Zr  0.91350799  0.00089534  0.50222453     2.84090
Zr1181     Zr  0.58643294  0.50127205  0.49972442     2.83360
Zr1182     Zr  0.50165400  0.49981267  0.91643362     2.84220
O1183       O  0.54315277  0.04393074  0.95646335    -1.08440
O1184       O  0.95638995  0.45683532  0.95846093    -1.07940
C1185       C  0.50096999  0.39167549  0.89467818     1.06720
C1186       C  0.99831235  0.10691609  0.88931759     1.09330
C1187       C  0.89232469  0.39323294  0.49795463     1.06890
C1188       C  0.61211054  0.39467980  0.49963687     1.07250
C1189       C  0.61053921  0.10870416  0.99956980     1.06830
C1190       C  0.89096183  0.10947985  0.00037498     1.06380
C1191       C  0.88885794  0.49909633  0.89245436     1.06810
C1192       C  0.60994389  0.49421773  0.89355848     1.06320
H1193       H  0.93808545  0.06135464  0.94001375     0.33000
O1194       O  0.95620187  0.04400949  0.95818593    -1.29540
H1195       H  0.56262898  0.43897070  0.94293830     0.33020
O1196       O  0.54511274  0.45744233  0.96034808    -1.30920
C1197       C  0.77105680  0.00198102  0.75205719     0.00690
C1198       C  0.72855055  0.98932789  0.75150043     0.00690
C1199       C  0.72858408  0.25023464  0.99598957     0.00690
C1200       C  0.77235833  0.24999587  0.99110861     0.00690
C1201       C  0.82472301  0.36054549  0.46810181    -0.12140
C1202       C  0.86007604  0.35853531  0.49643038     0.04860
C1203       C  0.86783382  0.31944665  0.01909430    -0.07430
C1204       C  0.83774003  0.28695844  0.01765631    -0.08180
C1205       C  0.80142035  0.28937343  0.48977401    -0.02730
C1206       C  0.79636343  0.32574776  0.46293686     0.04090
N1207       N  0.76428809  0.32754950  0.42947074     0.66600
H1208       H  0.82084153  0.38827915  0.44784898     0.15500
H1209       H  0.84443083  0.25920094  0.03699864     0.15210
N1210       N  0.90669910  0.31254235  0.04287632     0.74300
O1211       O  0.74849737  0.36283997  0.41827318    -0.39150
O1212       O  0.75233001  0.29952621  0.91054719    -0.39090
O1213       O  0.91117807  0.34284984  0.57769226    -0.39800
O1214       O  0.92973641  0.28059579  0.03452426    -0.39860
C1215       C  0.80229782  0.18718545  0.52948755    -0.12140
C1216       C  0.79675752  0.20883585  0.99164201     0.04860
C1217       C  0.81996943  0.19545290  0.95533602    -0.07430
C1218       C  0.84995234  0.16259887  0.95920155    -0.08180
C1219       C  0.85746163  0.14249295  0.99872865    -0.02730
C1220       C  0.83239015  0.15399718  0.53417068     0.04090
N1221       N  0.83810463  0.13431655  0.57578008     0.66600
H1222       H  0.78440750  0.19798243  0.55717145     0.15500
H1223       H  0.86823071  0.15323275  0.93122131     0.15210
N1224       N  0.81327469  0.21481411  0.91423144     0.74300
O1225       O  0.87462798  0.11776685  0.08673705    -0.39150
O1226       O  0.80896077  0.13683454  0.60355298    -0.39090
O1227       O  0.82884464  0.25095406  0.90685514    -0.39800
O1228       O  0.79669455  0.19484870  0.38349738    -0.40000
C1229       C  0.71275375  0.32636361  0.51612930    -0.12140
C1230       C  0.70221614  0.29026648  0.49139832     0.04860
C1231       C  0.66419806  0.29231717  0.97007196    -0.07430
C1232       C  0.63589916  0.32627132  0.97523833    -0.08180
C1233       C  0.64556858  0.36107389  0.49611439    -0.02730
C1234       C  0.68675680  0.36301396  0.51595726     0.04090
N1235       N  0.70362915  0.40142977  0.53474137     0.66600
H1236       H  0.74191820  0.32650403  0.53510292     0.15500
H1237       H  0.60741812  0.32749740  0.95507453     0.15210
N1238       N  0.65353600  0.26015692  0.93882744     0.74300
O1239       O  0.72814198  0.39905853  0.56717714    -0.39150
O1240       O  0.72926269  0.39797210  0.07250038    -0.39090
O1241       O  0.61325129  0.24351315  0.43807619    -0.39800
O1242       O  0.68110890  0.24723828  0.91239139    -0.39860
C1243       C  0.64215528  0.17481299  0.53004878    -0.12140
C1244       C  0.64397166  0.14192737  0.99965328     0.04860
C1245       C  0.67881920  0.14196735  0.97064559    -0.07430
C1246       C  0.70722781  0.17656354  0.97126284    -0.08180
C1247       C  0.70372977  0.20960663  0.00166591    -0.02730
C1248       C  0.67260029  0.20754046  0.53200372     0.04090
N1249       N  0.67068225  0.23805631  0.56658193     0.66600
H1250       H  0.61685530  0.17400938  0.55365189     0.15500
H1251       H  0.73076663  0.17878182  0.94609711     0.15210
N1252       N  0.68560527  0.10843489  0.93964112     0.74300
O1253       O  0.63550208  0.24619898  0.58446179    -0.39150
O1254       O  0.70470159  0.25262312  0.58308997    -0.39090
O1255       O  0.65457569  0.08904335  0.92244044    -0.39800
O1256       O  0.72350393  0.09888192  0.42741371    -0.39860
C1257       C  0.85578496  0.46553115  0.82879525    -0.12140
C1258       C  0.85543822  0.49871165  0.85901721     0.04860
C1259       C  0.82652194  0.03247195  0.85530906    -0.07430
C1260       C  0.79692468  0.03141370  0.82127786    -0.08180
C1261       C  0.79579224  0.49763220  0.79083410    -0.02730
C1262       C  0.82625231  0.46441078  0.79465706     0.04090
N1263       N  0.82844610  0.43049951  0.76337181     0.66600
H1264       H  0.87935617  0.44038897  0.83181097     0.15500
H1265       H  0.77538223  0.05804800  0.81649999     0.15210
N1266       N  0.82824080  0.06935789  0.88246069     0.74300
O1267       O  0.86156378  0.90830335  0.76077102    -0.39150
O1268       O  0.79527179  0.41730386  0.74412633    -0.39090
O1269       O  0.82926739  0.10581883  0.86570930    -0.39800
O1270       O  0.82059180  0.56429153  0.92247935    -0.39860
C1271       C  0.68239321  0.98549352  0.86611716    -0.12140
C1272       C  0.64078077  0.48732056  0.85788194     0.04860
C1273       C  0.62658711  0.47853247  0.81535924    -0.07430
C1274       C  0.65621865  0.47173714  0.78304705    -0.08180
C1275       C  0.70072137  0.47657805  0.78995685    -0.02730
C1276       C  0.71280483  0.97497995  0.83456714     0.04090
N1277       N  0.74830675  0.94951954  0.84874602     0.66600
H1278       H  0.69254956  0.98674410  0.89953165     0.15500
H1279       H  0.64296863  0.46531921  0.75145612     0.15210
N1280       N  0.58223112  0.47714908  0.80341381     0.74300
O1281       O  0.76592991  0.95693866  0.88476035    -0.39150
O1282       O  0.75536000  0.41228683  0.82663319    -0.39090
O1283       O  0.56117143  0.00983616  0.79421325    -0.39800
O1284       O  0.56636804  0.44274304  0.78973008    -0.39860
C1285       C  0.70012645  0.95958999  0.68340133    -0.12140
C1286       C  0.70347950  0.99447320  0.71144418     0.04860
C1287       C  0.67426236  0.52884363  0.70624128    -0.07430
C1288       C  0.64498809  0.52890711  0.67207587    -0.08180
C1289       C  0.64214004  0.99454255  0.64491628    -0.02730
C1290       C  0.66828847  0.95806998  0.65111544     0.04090
N1291       N  0.66069626  0.91837544  0.62857148     0.66600
H1292       H  0.72040094  0.93219595  0.68914697     0.15500
H1293       H  0.62426767  0.55607714  0.66760478     0.15210
N1294       N  0.67318179  0.56281836  0.73744319     0.74300
O1295       O  0.62994576  0.91420847  0.60230959    -0.39150
O1296       O  0.67884541  0.38438538  0.63993580    -0.39090
O1297       O  0.70641894  0.07669960  0.75652011    -0.39800
O1298       O  0.63775923  0.57735229  0.74999681    -0.39860
C1299       C  0.84277383  0.02450623  0.72155137    -0.12140
C1300       C  0.79891387  0.01598331  0.71335903     0.04860
C1301       C  0.78596321  0.51724329  0.66733790    -0.07430
C1302       C  0.81729639  0.51035676  0.63576075    -0.08180
C1303       C  0.86130738  0.01298513  0.64679901    -0.02730
C1304       C  0.87350522  0.02361988  0.68936260     0.04090
N1305       N  0.91647547  0.03533596  0.70060682     0.66600
H1306       H  0.85431854  0.03194318  0.75358663     0.15500
H1307       H  0.80731482  0.50785966  0.60235776     0.15210
N1308       N  0.74920184  0.54062857  0.65300574     0.74300
O1309       O  0.93232457  0.06853138  0.68465752    -0.39150
O1310       O  0.93395883  0.52044639  0.73135051    -0.39090
O1311       O  0.74391829  0.07852483  0.67253412    -0.39800
O1312       O  0.73119606  0.53081589  0.61777441    -0.39860
C1313       C  0.96210925  0.14612386  0.83009189    -0.12140
C1314       C  0.99894591  0.13931098  0.85523592     0.04860
C1315       C  0.53446579  0.16623626  0.85023278    -0.07430
C1316       C  0.53078580  0.20191897  0.82356013    -0.08180
C1317       C  0.99424323  0.20902306  0.79835167    -0.02730
C1318       C  0.95920555  0.18054694  0.80131885     0.04090
N1319       N  0.92032514  0.18625767  0.77685406     0.66600
H1320       H  0.93473408  0.12552077  0.83432953     0.15500
H1321       H  0.55762757  0.22334640  0.82121138     0.15210
N1322       N  0.57496795  0.15666622  0.87064958     0.74300
O1323       O  0.89799416  0.15441797  0.76627213    -0.39150
O1324       O  0.90577211  0.22291680  0.76949292    -0.39090
O1325       O  0.58441831  0.11883669  0.88020590    -0.39800
O1326       O  0.60400611  0.18442412  0.87268531    -0.39860
C1327       C  0.96009490  0.29698947  0.82752436    -0.12140
C1328       C  0.49574632  0.28976634  0.80248750     0.04860
C1329       C  0.53215055  0.31682448  0.80429785    -0.07430
C1330       C  0.53223399  0.35091996  0.83398324    -0.08180
C1331       C  0.49790584  0.35794736  0.86188480    -0.02730
C1332       C  0.95911355  0.33127727  0.85629368     0.04090
N1333       N  0.92047820  0.34018636  0.87974600     0.66600
H1334       H  0.93188853  0.27739229  0.82407255     0.15500
H1335       H  0.56006433  0.37120739  0.83682041     0.15210
N1336       N  0.56968355  0.30964662  0.77835843     0.74300
O1337       O  0.89423367  0.31077594  0.88726349    -0.39150
O1338       O  0.91037069  0.37786000  0.88952434    -0.39090
O1339       O  0.57722344  0.27382865  0.76163140    -0.39800
O1340       O  0.59761938  0.33836139  0.77506646    -0.39860
C1341       C  0.52723999  0.29287346  0.67353488    -0.12140
C1342       C  0.49546599  0.29341530  0.70539459     0.04860
C1343       C  0.97120315  0.32989929  0.70955255    -0.07430
C1344       C  0.97641182  0.36423383  0.68120378    -0.08180
C1345       C  0.50394709  0.36132677  0.64598575    -0.02730
C1346       C  0.53150082  0.32593131  0.64391212     0.04090
N1347       N  0.56501707  0.32360741  0.61292193     0.66600
H1348       H  0.54841149  0.26568944  0.67077175     0.15500
H1349       H  0.95531987  0.39149848  0.68382910     0.15210
N1350       N  0.93805732  0.33276530  0.74072977     0.74300
O1351       O  0.60340450  0.32306352  0.62579851    -0.39150
O1352       O  0.55648278  0.31287368  0.57461194    -0.39090
O1353       O  0.93513928  0.36571488  0.76381435    -0.39800
O1354       O  0.90800475  0.30611922  0.74053729    -0.39860
C1355       C  0.51870396  0.18112854  0.70895173    -0.12140
C1356       C  0.48763239  0.21303524  0.70332612     0.04860
C1357       C  0.96037244  0.20977032  0.66715932    -0.07430
C1358       C  0.96380147  0.17617493  0.63768289    -0.08180
C1359       C  0.49461864  0.14451908  0.64383957    -0.02730
C1360       C  0.52154164  0.14641386  0.68056423     0.04090
N1361       N  0.05479110  0.11482127  0.68633572     0.66600
H1362       H  0.54209599  0.18378970  0.73469864     0.15500
H1363       H  0.94221348  0.17517419  0.61018102     0.15210
N1364       N  0.42759412  0.24158015  0.65934212     0.74300
O1365       O  0.59238988  0.12756403  0.69291631    -0.39150
O1366       O  0.04457794  0.07774092  0.69766120    -0.39090
O1367       O  0.42483944  0.25881409  0.62285511    -0.39800
O1368       O  0.89312549  0.23923348  0.67882560    -0.39860
C1369       C  0.99006310  0.75198687  0.22981726     0.00690
C1370       C  0.49437958  0.75083741  0.27465923     0.00690
O1371       O  0.49811255  0.62382228  0.06986444    -0.86370
O1372       O  0.50436476  0.88147681  0.07247460    -0.86530
O1373       O  0.93242023  0.50241011  0.12302964    -0.88200
O1374       O  0.57002368  0.50981647  0.12570374    -0.86960
O1375       O  0.62195593  0.50701474  0.07442386    -0.86550
O1376       O  0.87919056  0.50070614  0.07165758    -0.87920
O1377       O  0.50265908  0.93349339  0.12444317    -0.86400
O1378       O  0.49984346  0.57306078  0.12272029    -0.85980
Zr1379     Zr  0.50169424  0.50323637  0.08867888     2.84310
O1380       O  0.54468098  0.95879786  0.04467287    -1.07960
O1381       O  0.95734267  0.54462803  0.04344606    -1.08690
C1382       C  0.49808911  0.61192964  0.10971248     1.06740
C1383       C  0.50451737  0.89425736  0.11206774     1.06690
C1384       C  0.89286476  0.50195460  0.11101506     1.09670
C1385       C  0.60940634  0.51116227  0.11376892     1.07450
H1386       H  0.93990377  0.94052190  0.06412142     0.33010
O1387       O  0.95744073  0.95812136  0.04601358    -1.28910
H1388       H  0.56211334  0.56410453  0.06232944     0.32680
O1389       O  0.54472496  0.54546354  0.04472071    -1.30590
O1390       O  0.49995923  0.88026006  0.43289515    -0.86360
O1391       O  0.50030673  0.61948776  0.42775293    -0.87860
O1392       O  0.87826524  0.93201137  0.99831003    -0.86440
O1393       O  0.62385350  0.93350000  0.00035419    -0.86490
O1394       O  0.62292816  0.56949535  0.49910511    -0.86200
O1395       O  0.87930498  0.57052246  0.50069321    -0.86000
O1396       O  0.92808201  0.99807861  0.38034191    -0.86370
O1397       O  0.56721520  0.99773770  0.38033705    -0.85840
O1398       O  0.87701261  0.00095958  0.43293208    -0.86900
O1399       O  0.62095110  0.99723800  0.43064022    -0.86060
O1400       O  0.93154596  0.88166012  0.99808836    -0.86460
O1401       O  0.93133716  0.62208559  0.49789857    -0.86180
O1402       O  0.57090634  0.62120153  0.49999160    -0.85830
O1403       O  0.57230637  0.88196932  0.99990051    -0.86240
O1404       O  0.49943138  0.93111228  0.37990016    -0.86530
O1405       O  0.99960708  0.56694085  0.37726497    -0.87870
Zr1406     Zr  0.50117252  0.91535601  0.00197248     2.83100
Zr1407     Zr  0.50013816  0.58696898  0.49931109     2.83500
Zr1408     Zr  0.91346180  0.50049171  0.00139501     2.84090
Zr1409     Zr  0.58685715  0.00138923  0.00060030     2.83360
Zr1410     Zr  0.49859243  0.00028585  0.41543430     2.84220
O1411       O  0.54266972  0.54351513  0.45554895    -1.08440
O1412       O  0.95642483  0.95760128  0.45895251    -1.07940
C1413       C  0.49943148  0.89229498  0.39318850     1.06720
C1414       C  0.00027743  0.60635565  0.38891862     1.09330
C1415       C  0.89180328  0.89315066  0.99709565     1.06890
C1416       C  0.61185016  0.89441210  0.99941333     1.07250
C1417       C  0.61044499  0.60863552  0.49929701     1.06830
C1418       C  0.89195110  0.60956280  0.49902254     1.06380
C1419       C  0.88902618  0.99957326  0.39338184     1.06810
C1420       C  0.60692310  0.99548662  0.39136182     1.06320
H1421       H  0.94012401  0.56076812  0.43882736     0.33000
O1422       O  0.95794139  0.54363483  0.45749465    -1.29540
H1423       H  0.56053411  0.94008467  0.44059816     0.33020
O1424       O  0.54316658  0.95819162  0.45852530    -1.30920
C1425       C  0.77421691  0.49468163  0.25161544     0.00690
C1426       C  0.73063189  0.50120698  0.25497554     0.00690
C1427       C  0.72882953  0.74997464  0.49363279     0.00690
C1428       C  0.77271313  0.74970531  0.48864360     0.00690
C1429       C  0.82434613  0.86056068  0.96704987    -0.12140
C1430       C  0.85968773  0.85846875  0.99536547     0.04860
C1431       C  0.86572727  0.82100944  0.51990329    -0.07430
C1432       C  0.83620772  0.78801717  0.51749158    -0.08180
C1433       C  0.80138756  0.78922972  0.98833488    -0.02730
C1434       C  0.79614358  0.82570238  0.96170857     0.04090
N1435       N  0.76392332  0.82759440  0.92839725     0.66600
H1436       H  0.82033891  0.88840943  0.94698034     0.15500
H1437       H  0.84163087  0.76105146  0.53834164     0.15210
N1438       N  0.90279083  0.81570635  0.54677367     0.74300
O1439       O  0.74760814  0.86283806  0.91784429    -0.39150
O1440       O  0.75271087  0.79458651  0.40821743    -0.39090
O1441       O  0.91079696  0.84243252  0.07667437    -0.39800
O1442       O  0.92761149  0.78465167  0.54043193    -0.39860
C1443       C  0.80224239  0.68700578  0.02773159    -0.12140
C1444       C  0.79747277  0.70875279  0.48956707     0.04860
C1445       C  0.82145558  0.69577875  0.45362201    -0.07430
C1446       C  0.85189378  0.66343156  0.45785959    -0.08180
C1447       C  0.85858370  0.64274714  0.49719756    -0.02730
C1448       C  0.83221971  0.65375132  0.03237969     0.04090
N1449       N  0.83802864  0.63418624  0.07398005     0.66600
H1450       H  0.78438541  0.69781935  0.05543194     0.15500
H1451       H  0.87095725  0.65479167  0.43019499     0.15210
N1452       N  0.81482605  0.71473323  0.41233473     0.74300
O1453       O  0.87467326  0.61829478  0.58553375    -0.39150
O1454       O  0.80886755  0.63654571  0.10174767    -0.39090
O1455       O  0.83181729  0.75004979  0.40415069    -0.39800
O1456       O  0.79765635  0.69465725  0.88148676    -0.40000
C1457       C  0.71281945  0.82629617  0.01499118    -0.12140
C1458       C  0.70215394  0.79012625  0.99042145     0.04860
C1459       C  0.66239181  0.79006838  0.46865743    -0.07430
C1460       C  0.63422789  0.82433010  0.47295757    -0.08180
C1461       C  0.64531932  0.86080374  0.99562541    -0.02730
C1462       C  0.68675872  0.86290818  0.01491432     0.04090
N1463       N  0.70390133  0.90152182  0.03299339     0.66600
H1464       H  0.74216911  0.82658136  0.03366256     0.15500
H1465       H  0.60371764  0.82303520  0.45612962     0.15210
N1466       N  0.65032543  0.75594012  0.44030377     0.74300
O1467       O  0.72874625  0.89951961  0.06519804    -0.39150
O1468       O  0.70551445  0.93422699  0.50962044    -0.39090
O1469       O  0.61288066  0.74285967  0.93830704    -0.39800
O1470       O  0.67568109  0.74351466  0.41146937    -0.39860
C1471       C  0.64318934  0.67420095  0.02939349    -0.12140
C1472       C  0.64408301  0.64185510  0.49942521     0.04860
C1473       C  0.67906036  0.64142048  0.47062018    -0.07430
C1474       C  0.70778594  0.67572015  0.47086901    -0.08180
C1475       C  0.70427619  0.70932664  0.50057803    -0.02730
C1476       C  0.67339124  0.70710549  0.03111810     0.04090
N1477       N  0.67166053  0.73750833  0.06581467     0.66600
H1478       H  0.61816421  0.67314494  0.05328254     0.15500
H1479       H  0.73132474  0.67743651  0.44564538     0.15210
N1480       N  0.68525571  0.60783951  0.43970251     0.74300
O1481       O  0.63663650  0.74536116  0.08412853    -0.39150
O1482       O  0.70575892  0.75227996  0.08195855    -0.39090
O1483       O  0.65375887  0.59046068  0.42122497    -0.39800
O1484       O  0.72395743  0.59952758  0.92520547    -0.39860
C1485       C  0.85478833  0.96469952  0.33110733    -0.12140
C1486       C  0.85546136  0.99887464  0.36013584     0.04860
C1487       C  0.84187860  0.53479160  0.34340089    -0.07430
C1488       C  0.81220419  0.53248722  0.30960794    -0.08180
C1489       C  0.79536209  0.99704077  0.29239794    -0.02730
C1490       C  0.82499754  0.96311384  0.29715829     0.04090
N1491       N  0.82601007  0.92790344  0.26720586     0.66600
H1492       H  0.87781079  0.93916781  0.33495762     0.15500
H1493       H  0.79530615  0.56099253  0.29970136     0.15210
N1494       N  0.84931516  0.57500505  0.36435148     0.74300
O1495       O  0.84528669  0.38915727  0.27621105    -0.39150
O1496       O  0.79291694  0.91668946  0.24656411    -0.39090
O1497       O  0.84634548  0.60909094  0.34319585    -0.39800
O1498       O  0.82211638  0.06616021  0.42232859    -0.39860
C1499       C  0.67806785  0.50590887  0.36441980    -0.12140
C1500       C  0.63833529  0.98859711  0.35623407     0.04860
C1501       C  0.62515959  0.97830483  0.31378570    -0.07430
C1502       C  0.65568986  0.97055204  0.28244695    -0.08180
C1503       C  0.69999339  0.97640913  0.29022484    -0.02730
C1504       C  0.71321933  0.49950831  0.33792089     0.04090
N1505       N  0.75140576  0.48963990  0.36148186     0.66600
H1506       H  0.68396127  0.51858165  0.39636585     0.15500
H1507       H  0.64338320  0.96300594  0.25071941     0.15210
N1508       N  0.58105207  0.97654304  0.30092889     0.74300
O1509       O  0.76430693  0.51534619  0.39011174    -0.39150
O1510       O  0.75360749  0.91348692  0.33056424    -0.39090
O1511       O  0.56062955  0.46956370  0.29679068    -0.39800
O1512       O  0.56602493  0.94232147  0.28585165    -0.39860
C1513       C  0.71576260  0.51906368  0.17366477    -0.12140
C1514       C  0.70273889  0.51820102  0.21724630     0.04860
C1515       C  0.67414146  0.02869474  0.20714059    -0.07430
C1516       C  0.64495636  0.02870353  0.17293457    -0.08180
C1517       C  0.64234209  0.51826545  0.14806012    -0.02730
C1518       C  0.68646240  0.51940982  0.13941247     0.04090
N1519       N  0.70248106  0.52215184  0.09638647     0.66600
H1520       H  0.74813260  0.52161956  0.16396676     0.15500
H1521       H  0.62381242  0.05558687  0.16874791     0.15210
N1522       N  0.67232371  0.06219592  0.23884494     0.74300
O1523       O  0.69403918  0.55458204  0.07401424    -0.39150
O1524       O  0.68122712  0.88513219  0.13907523    -0.39090
O1525       O  0.67373690  0.57382988  0.28459299    -0.39800
O1526       O  0.63659109  0.07612516  0.25120918    -0.39860
C1527       C  0.82581114  0.53358214  0.20659246    -0.12140
C1528       C  0.80004322  0.49740986  0.21173156     0.04860
C1529       C  0.78653059  0.01824591  0.16905329    -0.07430
C1530       C  0.81750490  0.01145783  0.13709894    -0.08180
C1531       C  0.86076562  0.50165741  0.14525258    -0.02730
C1532       C  0.85700600  0.53552570  0.17484610     0.04090
N1533       N  0.88473450  0.57183994  0.17377590     0.66600
H1534       H  0.82300229  0.56002491  0.22874750     0.15500
H1535       H  0.80731495  0.01046874  0.10368326     0.15210
N1536       N  0.75008512  0.04268105  0.15573496     0.74300
O1537       O  0.86923465  0.60858145  0.17888457    -0.39150
O1538       O  0.93480169  0.01486384  0.23253637    -0.39090
O1539       O  0.78933031  0.39150507  0.16717829    -0.39800
O1540       O  0.73180468  0.03445891  0.12022969    -0.39860
C1541       C  0.96362554  0.64525500  0.32957429    -0.12140
C1542       C  0.00058002  0.63871606  0.35465312     0.04860
C1543       C  0.53532839  0.66489727  0.34943821    -0.07430
C1544       C  0.53217178  0.70085112  0.32315679    -0.08180
C1545       C  0.99456085  0.70924351  0.29867588    -0.02730
C1546       C  0.96009010  0.68010066  0.30134902     0.04090
N1547       N  0.92096305  0.68586159  0.27739742     0.66600
H1548       H  0.93658698  0.62418659  0.33355542     0.15500
H1549       H  0.55936924  0.72185115  0.32090622     0.15210
N1550       N  0.57573322  0.65422116  0.36931914     0.74300
O1551       O  0.89962589  0.65392359  0.26515056    -0.39150
O1552       O  0.90490875  0.72236849  0.27289214    -0.39090
O1553       O  0.58514317  0.61581823  0.37620365    -0.39800
O1554       O  0.60478093  0.68182050  0.37306148    -0.39860
C1555       C  0.96185815  0.79556978  0.33034521    -0.12140
C1556       C  0.49733994  0.78925615  0.30273774     0.04860
C1557       C  0.53312302  0.81710334  0.30436624    -0.07430
C1558       C  0.53210932  0.85174756  0.33330502    -0.08180
C1559       C  0.49722950  0.85855718  0.36052946    -0.02730
C1560       C  0.96091683  0.83042514  0.35837945     0.04090
N1561       N  0.92368916  0.83766660  0.38443634     0.66600
H1562       H  0.93492235  0.77403507  0.32978634     0.15500
H1563       H  0.55948083  0.87264844  0.33612505     0.15210
N1564       N  0.57105595  0.81022953  0.27895114     0.74300
O1565       O  0.90105630  0.80676163  0.39627245    -0.39150
O1566       O  0.91063843  0.87498851  0.39177240    -0.39090
O1567       O  0.57963494  0.77419383  0.26324642    -0.39800
O1568       O  0.59830434  0.83952773  0.27517954    -0.39860
C1569       C  0.53022090  0.79332934  0.17377106    -0.12140
C1570       C  0.49861201  0.79365239  0.20578677     0.04860
C1571       C  0.97036543  0.82956916  0.20899534    -0.07430
C1572       C  0.97518097  0.86334696  0.17987160    -0.08180
C1573       C  0.50549294  0.86113836  0.14579672    -0.02730
C1574       C  0.53361573  0.82615793  0.14373990     0.04090
N1575       N  0.56663854  0.82392031  0.11220620     0.66600
H1576       H  0.55163479  0.76633309  0.17099824     0.15500
H1577       H  0.95427196  0.89075524  0.18243203     0.15210
N1578       N  0.93860866  0.83362220  0.24155478     0.74300
O1579       O  0.60522237  0.82334717  0.12445748    -0.39150
O1580       O  0.55750148  0.81320721  0.07402652    -0.39090
O1581       O  0.93690238  0.86721128  0.26381747    -0.39800
O1582       O  0.90926366  0.80643903  0.24470416    -0.39860
C1583       C  0.51966657  0.68052125  0.20880900    -0.12140
C1584       C  0.48997036  0.71359435  0.20300135     0.04860
C1585       C  0.95944107  0.70964940  0.16705137    -0.07430
C1586       C  0.96319830  0.67635927  0.13719425    -0.08180
C1587       C  0.49501004  0.64564058  0.14298021    -0.02730
C1588       C  0.52096289  0.64580387  0.18045216     0.04090
N1589       N  0.05368850  0.61449712  0.18602753     0.66600
H1590       H  0.54256679  0.68173753  0.23509240     0.15500
H1591       H  0.94172243  0.67547866  0.10960112     0.15210
N1592       N  0.43048877  0.74391929  0.15990403     0.74300
O1593       O  0.58849529  0.61833649  0.19542937    -0.39150
O1594       O  0.04338452  0.57740825  0.19724051    -0.39090
O1595       O  0.43245046  0.76713892  0.12704142    -0.39800
O1596       O  0.89500704  0.74255817  0.18409965    -0.39860
C1597       C  0.99224060  0.75286595  0.73029846     0.00690
C1598       C  0.49306460  0.75004799  0.77410807     0.00690
O1599       O  0.49648341  0.62263254  0.56949406    -0.86370
O1600       O  0.50397100  0.88173159  0.57300956    -0.86530
O1601       O  0.93287852  0.50599615  0.62296022    -0.88200
O1602       O  0.56998733  0.50007725  0.62250693    -0.86960
O1603       O  0.62161815  0.49712466  0.57030141    -0.86550
O1604       O  0.88007266  0.50632683  0.57149244    -0.87920
O1605       O  0.50206215  0.93362567  0.62509495    -0.86400
O1606       O  0.49961211  0.57166357  0.62211418    -0.85980
Zr1607     Zr  0.50086518  0.50214715  0.58713788     2.84310
O1608       O  0.54485157  0.95918685  0.54532961    -1.07960
O1609       O  0.95885444  0.54509849  0.54362299    -1.08690
C1610       C  0.49714007  0.61058823  0.60931964     1.06740
C1611       C  0.50380774  0.89437791  0.61263240     1.06690
C1612       C  0.89335436  0.50825330  0.61104381     1.09670
C1613       C  0.60898766  0.49720100  0.60983568     1.07450
H1614       H  0.93971815  0.94012840  0.56391985     0.33010
O1615       O  0.95718772  0.95773306  0.54574933    -1.28910
H1616       H  0.56191781  0.56264603  0.56147226     0.32680
O1617       O  0.54395930  0.54483963  0.54351891    -1.30590
O1618       O  0.49941299  0.87985472  0.93219241    -0.86360
O1619       O  0.50158172  0.62006995  0.92848648    -0.87860
O1620       O  0.87788956  0.93166319  0.49834409    -0.86440
O1621       O  0.62399634  0.93368906  0.50091204    -0.86490
O1622       O  0.62462749  0.56949024  0.99981056    -0.86200
O1623       O  0.87807438  0.56983378  0.00143582    -0.86000
O1624       O  0.92874894  0.99795955  0.88047041    -0.86370
O1625       O  0.56727454  0.99733556  0.87985708    -0.85840
O1626       O  0.87754950  0.00126621  0.93289408    -0.86900
O1627       O  0.62091618  0.99702958  0.93027378    -0.86060
O1628       O  0.93116649  0.88130922  0.49789773    -0.86460
O1629       O  0.92993644  0.62141576  0.99689388    -0.86180
O1630       O  0.57256378  0.62123457  0.99982557    -0.85830
O1631       O  0.57237021  0.88224217  0.50067574    -0.86240
O1632       O  0.49885412  0.93074793  0.87922893    -0.86530
O1633       O  0.99612724  0.56689897  0.87608521    -0.87870
Zr1634     Zr  0.50133789  0.91575556  0.50263374     2.83100
Zr1635     Zr  0.50160623  0.58766171  0.00008285     2.83500
Zr1636     Zr  0.91482741  0.50128312  0.50140968     2.84090
Zr1637     Zr  0.58706942  0.00169850  0.50113336     2.83360
Zr1638     Zr  0.49846293  0.00003759  0.91476554     2.84220
O1639       O  0.54564602  0.54392830  0.95817569    -1.08440
O1640       O  0.95676932  0.95781558  0.95924969    -1.07940
C1641       C  0.49873487  0.89189597  0.89247935     1.06720
C1642       C  0.99799904  0.60614532  0.88818625     1.09330
C1643       C  0.89141161  0.89279574  0.49708389     1.06890
C1644       C  0.61192821  0.89460326  0.50008506     1.07250
C1645       C  0.61206156  0.60857135  0.99909152     1.06830
C1646       C  0.89062904  0.60883524  0.99865902     1.06380
C1647       C  0.88966053  0.99959414  0.89337361     1.06810
C1648       C  0.60698009  0.99516419  0.89098334     1.06320
H1649       H  0.93760838  0.56037414  0.93889663     0.33000
O1650       O  0.95577191  0.54306005  0.95704976    -1.29540
H1651       H  0.56033571  0.93978350  0.93995344     0.33020
O1652       O  0.54297870  0.95788666  0.95789570    -1.30920
C1653       C  0.77061641  0.50237251  0.75071892     0.00690
C1654       C  0.72822112  0.48941735  0.75059452     0.00690
C1655       C  0.72934988  0.75041481  0.99198556     0.00690
C1656       C  0.77324622  0.75013879  0.98754673     0.00690
C1657       C  0.82367732  0.86020650  0.46758120    -0.12140
C1658       C  0.85925664  0.85810768  0.49559204     0.04860
C1659       C  0.86604606  0.82134457  0.01966978    -0.07430
C1660       C  0.83662597  0.78828324  0.01691872    -0.08180
C1661       C  0.80076986  0.78890887  0.48916561    -0.02730
C1662       C  0.79536118  0.82538122  0.46251865     0.04090
N1663       N  0.76284777  0.82735534  0.42948647     0.66600
H1664       H  0.81954535  0.88804682  0.44752485     0.15500
H1665       H  0.84193676  0.76125766  0.03771874     0.15210
N1666       N  0.90289173  0.81611316  0.04687359     0.74300
O1667       O  0.74675529  0.86267893  0.41885977    -0.39150
O1668       O  0.75431567  0.79485946  0.90682278    -0.39090
O1669       O  0.91129758  0.84229650  0.57616177    -0.39800
O1670       O  0.92824917  0.78554540  0.04028148    -0.39860
C1671       C  0.80247379  0.68658916  0.52854609    -0.12140
C1672       C  0.79770029  0.70910073  0.98870363     0.04860
C1673       C  0.82131250  0.69559809  0.95275326    -0.07430
C1674       C  0.85084945  0.66242048  0.95692088    -0.08180
C1675       C  0.85732335  0.64196945  0.99643428    -0.02730
C1676       C  0.83308500  0.65381995  0.53311960     0.04090
N1677       N  0.83902155  0.63401377  0.57462153     0.66600
H1678       H  0.78442017  0.69697434  0.55628062     0.15500
H1679       H  0.86948004  0.65298480  0.92920001     0.15210
N1680       N  0.81540394  0.71518870  0.91168695     0.74300
O1681       O  0.87338039  0.61769054  0.08465237    -0.39150
O1682       O  0.80958748  0.63548697  0.60215231    -0.39090
O1683       O  0.83465200  0.74930031  0.90336409    -0.39800
O1684       O  0.80030284  0.69237326  0.38172613    -0.40000
C1685       C  0.71252506  0.82606630  0.51620383    -0.12140
C1686       C  0.70169453  0.78975155  0.49191050     0.04860
C1687       C  0.66281126  0.79038209  0.96726336    -0.07430
C1688       C  0.63445426  0.82443414  0.97186047    -0.08180
C1689       C  0.64528699  0.86084591  0.49641572    -0.02730
C1690       C  0.68673408  0.86287553  0.51567716     0.04090
N1691       N  0.70420583  0.90162922  0.53311501     0.66600
H1692       H  0.74187233  0.82634138  0.53488163     0.15500
H1693       H  0.60394095  0.82309554  0.95504054     0.15210
N1694       N  0.65087724  0.75635785  0.93874649     0.74300
O1695       O  0.72928675  0.89993272  0.56515330    -0.39150
O1696       O  0.70524997  0.93442479  0.00994256    -0.39090
O1697       O  0.61220414  0.74279149  0.43969889    -0.39800
O1698       O  0.67619940  0.74430632  0.90972228    -0.39860
C1699       C  0.64163441  0.67433029  0.53033340    -0.12140
C1700       C  0.64553516  0.64174978  0.99846308     0.04860
C1701       C  0.68012201  0.64146438  0.96913395    -0.07430
C1702       C  0.70837494  0.67618040  0.96894931    -0.08180
C1703       C  0.70494014  0.70971662  0.99879928    -0.02730
C1704       C  0.67216847  0.70701478  0.53243690     0.04090
N1705       N  0.67016013  0.73754997  0.56699581     0.66600
H1706       H  0.61625764  0.67349914  0.55384810     0.15500
H1707       H  0.73166752  0.67815065  0.94352427     0.15210
N1708       N  0.68675760  0.60752918  0.93854058     0.74300
O1709       O  0.63495000  0.74565824  0.58483548    -0.39150
O1710       O  0.70412855  0.75231940  0.58342327    -0.39090
O1711       O  0.65567485  0.58760733  0.92209855    -0.39800
O1712       O  0.72250966  0.59841378  0.42748666    -0.39860
C1713       C  0.85574381  0.96495555  0.83066170    -0.12140
C1714       C  0.85618228  0.99887688  0.86000715     0.04860
C1715       C  0.82540158  0.53209049  0.85476848    -0.07430
C1716       C  0.79606517  0.53131686  0.82046991    -0.08180
C1717       C  0.79596676  0.99715697  0.79232609    -0.02730
C1718       C  0.82592362  0.96347597  0.79672954     0.04090
N1719       N  0.82728738  0.92868033  0.76634041     0.66600
H1720       H  0.87894679  0.93954536  0.83422644     0.15500
H1721       H  0.77410646  0.55768037  0.81610125     0.15210
N1722       N  0.82645790  0.56853336  0.88260595     0.74300
O1723       O  0.86370101  0.41270066  0.75561164    -0.39150
O1724       O  0.79403148  0.91666461  0.74644868    -0.39090
O1725       O  0.82578102  0.60532260  0.86654735    -0.39800
O1726       O  0.82140899  0.06604610  0.92226645    -0.39860
C1727       C  0.68471770  0.48337071  0.86674668    -0.12140
C1728       C  0.63855313  0.98822682  0.85601070     0.04860
C1729       C  0.62557740  0.97764224  0.81358712    -0.07430
C1730       C  0.65626481  0.96983980  0.78242003    -0.08180
C1731       C  0.70050116  0.97611623  0.79029339    -0.02730
C1732       C  0.71407056  0.47342137  0.83392505     0.04090
N1733       N  0.74958724  0.44704445  0.84619510     0.66600
H1734       H  0.69561983  0.48324871  0.89994854     0.15500
H1735       H  0.64411614  0.96206539  0.75068747     0.15210
N1736       N  0.58152356  0.97569738  0.80056186     0.74300
O1737       O  0.76799540  0.45273257  0.88213600    -0.39150
O1738       O  0.75489660  0.91406644  0.83079107    -0.39090
O1739       O  0.56244070  0.51150350  0.79649984    -0.39800
O1740       O  0.56671346  0.94142764  0.78538097    -0.39860
C1741       C  0.69872561  0.45880993  0.68324668    -0.12140
C1742       C  0.70281291  0.49412958  0.71063605     0.04860
C1743       C  0.67435776  0.02878838  0.70763314    -0.07430
C1744       C  0.64501721  0.02885051  0.67356644    -0.08180
C1745       C  0.64157032  0.49426195  0.64388264    -0.02730
C1746       C  0.66693898  0.45737838  0.65086403     0.04090
N1747       N  0.65865027  0.41748806  0.62894637     0.66600
H1748       H  0.71848420  0.43114716  0.68947158     0.15500
H1749       H  0.62376185  0.05570647  0.66959333     0.15210
N1750       N  0.67266275  0.06221323  0.73942243     0.74300
O1751       O  0.62814726  0.41358972  0.60234957    -0.39150
O1752       O  0.68167584  0.88553219  0.63885568    -0.39090
O1753       O  0.70724155  0.57733769  0.75387552    -0.39800
O1754       O  0.63698567  0.07620614  0.75187425    -0.39860
C1755       C  0.84173793  0.52622789  0.72003173    -0.12140
C1756       C  0.79815648  0.51649127  0.71180035     0.04860
C1757       C  0.78649878  0.01812089  0.66903159    -0.07430
C1758       C  0.81744511  0.01105389  0.63712881    -0.08180
C1759       C  0.86101992  0.51362225  0.64561079    -0.02730
C1760       C  0.87270537  0.52518828  0.68807593     0.04090
N1761       N  0.91545129  0.53748319  0.69948175     0.66600
H1762       H  0.85289642  0.53450165  0.75200686     0.15500
H1763       H  0.80719949  0.00947303  0.60375158     0.15210
N1764       N  0.75009368  0.04254403  0.65553023     0.74300
O1765       O  0.93085648  0.57096486  0.68370989    -0.39150
O1766       O  0.93476207  0.01827931  0.73259167    -0.39090
O1767       O  0.74275704  0.57723278  0.66847376    -0.39800
O1768       O  0.73187202  0.03421736  0.62001938    -0.39860
C1769       C  0.96251839  0.64596223  0.82870824    -0.12140
C1770       C  0.99900362  0.63875516  0.85425468     0.04860
C1771       C  0.53624716  0.66532860  0.84927865    -0.07430
C1772       C  0.53223862  0.70086007  0.82244273    -0.08180
C1773       C  0.99489593  0.70973822  0.79889778    -0.02730
C1774       C  0.96000533  0.68099844  0.80066212     0.04090
N1775       N  0.92151882  0.68727525  0.77583164     0.66600
H1776       H  0.93509718  0.62525427  0.83208607     0.15500
H1777       H  0.55902945  0.72228812  0.81967827     0.15210
N1778       N  0.57696608  0.65596525  0.86933910     0.74300
O1779       O  0.90044600  0.65560298  0.76242293    -0.39150
O1780       O  0.90567224  0.72389931  0.77160523    -0.39090
O1781       O  0.58644046  0.61827216  0.87939256    -0.39800
O1782       O  0.60609223  0.68367025  0.87055187    -0.39860
C1783       C  0.96297488  0.79603823  0.83067555    -0.12140
C1784       C  0.49606392  0.78869633  0.80196202     0.04860
C1785       C  0.53186396  0.81655921  0.80341144    -0.07430
C1786       C  0.53100622  0.85121642  0.83238238    -0.08180
C1787       C  0.49627010  0.85811770  0.85977749    -0.02730
C1788       C  0.96194971  0.83086153  0.85870448     0.04090
N1789       N  0.92457399  0.83821868  0.88449670     0.66600
H1790       H  0.93592729  0.77463694  0.82982422     0.15500
H1791       H  0.55841387  0.87207581  0.83509776     0.15210
N1792       N  0.56968963  0.80971105  0.77780447     0.74300
O1793       O  0.90199234  0.80735025  0.89650724    -0.39150
O1794       O  0.91143131  0.87556603  0.89152425    -0.39090
O1795       O  0.57779218  0.77392039  0.76129229    -0.39800
O1796       O  0.59726244  0.83877042  0.77451168    -0.39860
C1797       C  0.52795623  0.79232940  0.67306235    -0.12140
C1798       C  0.49622807  0.79250663  0.70495025     0.04860
C1799       C  0.97226176  0.83022711  0.70945160    -0.07430
C1800       C  0.97649919  0.86365923  0.67989151    -0.08180
C1801       C  0.50427923  0.86095706  0.64613122    -0.02730
C1802       C  0.53203185  0.82570389  0.64374108     0.04090
N1803       N  0.56553630  0.82385444  0.61271431     0.66600
H1804       H  0.54923093  0.76524984  0.67008075     0.15500
H1805       H  0.95519434  0.89079186  0.68217152     0.15210
N1806       N  0.94032901  0.83409262  0.74184616     0.74300
O1807       O  0.60395118  0.82398590  0.62552085    -0.39150
O1808       O  0.55710647  0.81300480  0.57441521    -0.39090
O1809       O  0.93840204  0.86763281  0.76416604    -0.39800
O1810       O  0.91062545  0.80720835  0.74417488    -0.39860
C1811       C  0.51907862  0.68033332  0.70771463    -0.12140
C1812       C  0.48802855  0.71227515  0.70274981     0.04860
C1813       C  0.96211082  0.71179994  0.66661150    -0.07430
C1814       C  0.96572204  0.67880205  0.63647624    -0.08180
C1815       C  0.49374401  0.64413838  0.64280920    -0.02730
C1816       C  0.52133309  0.64580618  0.67908114     0.04090
N1817       N  0.04893033  0.61112988  0.68995588     0.66600
H1818       H  0.54286482  0.68283155  0.73311970     0.15500
H1819       H  0.94495859  0.67879449  0.60832216     0.15210
N1820       N  0.42720302  0.74111480  0.66049385     0.74300
O1821       O  0.59233514  0.62694330  0.69016114    -0.39150
O1822       O  0.03326665  0.57712387  0.70427821    -0.39090
O1823       O  0.42815186  0.76370629  0.62711318    -0.39800
O1824       O  0.89683084  0.74398589  0.68161823    -0.39860
loop_ 
_geom_bond_atom_site_label_1 
_geom_bond_atom_site_label_2 
_geom_bond_distance 
_geom_bond_site_symmetry_2 
_ccdc_geom_bond_type 
C1          C914   1.375       .  D
C1         C1114   1.510       .  S
C1         C1128   1.502       .  S
C2          C913   1.376       .  D
C2          C188   1.493       .  S
C2         C1089   1.501       .  S
O3           C14   1.294       .  A
O3         Zr267   2.446   1_655  S
O4           C15   1.292       .  A
O4          Zr38   2.440       .  S
O5           C16   1.288       .  A
O5         Zr923   2.421       .  S
O6           C17   1.288   1_545  A
O6          Zr11   2.416       .  S
O7           C17   1.292       .  A
O7         Zr497   2.441   1_565  S
O8           C16   1.293       .  A
O8          Zr40   2.443       .  S
O9           C15   1.293       .  A
O9         Zr467   2.447       .  S
O10          C14   1.292   1_455  A
O10         Zr11   2.443       .  S
Zr11        O917   2.422   1_455  S
Zr11        O465   2.449   1_545  S
Zr11         O21   2.348       .  S
Zr11        O468   2.335   1_545  S
Zr11        O925   2.333   1_455  S
Zr11       O1387   2.342   1_445  S
O12         Zr38   2.328       .  S
O12         Zr41   2.339   1_554  S
O12        Zr467   2.337       .  S
O13         Zr40   2.337       .  S
O13        Zr923   2.332       .  S
O13       Zr1179   2.343       .  S
C14         C219   1.483       .  S
C15         C205   1.482       .  S
C16         C163   1.490       .  S
C17         C149   1.463       .  S
H18          O19   0.966       .  S
O19       Zr1379   2.345       .  S
O19        Zr950   2.344       .  S
O19        Zr496   2.349       .  S
H20          O21   0.966       .  S
O21        Zr267   2.348       .  S
O21        Zr497   2.345       .  S
O22          C45   1.292       .  A
O22        Zr266   2.439       .  S
O23         C958   1.295   1_455  A
O23         Zr39   2.452       .  S
O24          C47   1.294       .  A
O24        Zr496   2.452   1_556  S
O25          C48   1.286       .  A
O25         Zr41   2.425       .  S
O26          C49   1.290       .  A
O26        Zr725   2.430       .  S
O27          C50   1.292       .  A
O27        Zr268   2.440       .  S
O28          C51   1.290       .  A
O28        Zr954   2.428       .  S
O29          C52   1.284       .  A
O29         Zr42   2.405       .  S
O30          C51   1.290       .  A
O30        Zr724   2.432       .  S
O31          C52   1.295       .  A
O31        Zr269   2.457       .  S
O32          C47   1.294       .  A
O32        Zr950   2.441   1_556  S
O33          C50   1.295       .  A
O33        Zr951   2.452       .  S
O34          C49   1.297       .  A
O34         Zr39   2.457       .  S
O35          C48   1.298       .  A
O35         Zr38   2.459   1_556  S
O36          C45   1.291       .  A
O36         Zr42   2.437       .  S
O37          C46   1.289       .  A
O37       Zr1410   2.431       .  S
Zr38        O250   2.424   1_454  S
Zr38        O944   2.434   1_454  S
Zr38        O931   2.343   1_455  S
Zr38       O1184   2.342   1_454  S
Zr38        O284   2.328   1_554  S
Zr39        O231   2.445   1_455  S
Zr39        O945   2.447   1_455  S
Zr39         O43   2.341       .  S
Zr39       O1153   2.343   1_455  S
Zr39        O249   2.347       .  S
Zr39        O966   2.343   1_455  S
Zr40        O480   2.450   1_544  S
Zr40        O255   2.442       .  S
Zr40        O714   2.428   1_554  S
Zr40        O475   2.347   1_545  S
Zr40        O728   2.340   1_544  S
Zr40        O282   2.346   1_554  S
Zr41        O463   2.448   1_556  S
Zr41        O710   2.432       .  S
Zr41        O259   2.455       .  S
Zr41        O477   2.346   1_556  S
Zr41        O727   2.344       .  S
Zr41        O284   2.336       .  S
Zr42        O940   2.406   1_455  S
Zr42       O1405   2.439   1_455  S
Zr42         O56   2.335       .  S
Zr42        O499   2.336       .  S
Zr42        O956   2.332   1_455  S
Zr42       O1422   2.337   1_455  S
O43        Zr725   2.347       .  S
O43        Zr498   2.344   1_455  S
O44       Zr1178   2.343       .  S
O44        Zr724   2.341       .  S
O44        Zr954   2.333       .  S
C45         C191   1.470   1_455  S
C46         O935   1.295       .  A
C46         C174   1.473       .  S
C47          C62   1.488       .  S
C48          C93   1.490       .  S
C49         C104   1.480       .  S
C50          C79   1.474       .  S
C51         C118   1.467       .  S
C52         C132   1.491       .  S
H53          O54   0.966       .  S
O54        Zr951   2.345       .  S
O54        Zr268   2.346       .  S
O54       Zr1410   2.335       .  S
H55          O56   0.965       .  S
O56        Zr266   2.332       .  S
O56        Zr269   2.339       .  S
C57          C58   1.388   1_545  D
C57         C160   1.557       .  S
C57         C577   1.476   1_545  S
C58         C146   1.474       .  S
C58         C591   1.555       .  S
C59          C60   1.378       .  D
C59         C107   1.509       .  S
C59         C318   1.504       .  S
C60          C76   1.501       .  S
C60         C293   1.516       .  S
C61          C62   1.408       .  A
C61          C66   1.418       .  A
C61          H68   1.084       .  S
C62         C291   1.407   1_556  A
C63          C64   1.391       .  A
C63         C290   1.407       .  A
C63          N70   1.433       .  S
C64         C293   1.409       .  A
C64          H69   1.081       .  S
C65         C288   1.516       .  S
C65          C66   1.426       .  A
C65         C292   1.409   1_556  A
C66          N67   1.439       .  S
N67          O71   1.263       .  A
N67         O300   1.262       .  A
N70          O74   1.263       .  A
N70         O301   1.262       .  A
O72         N295   1.261       .  A
O73         N298   1.262       .  A
C75          C80   1.411       .  A
C75         C304   1.406   1_554  A
C75          H82   1.083       .  S
C76          C77   1.409       .  A
C76         C303   1.406       .  A
C77          C78   1.398       .  A
C77          N84   1.430       .  S
C78          C79   1.401       .  A
C78          H83   1.084       .  S
C79         C308   1.419       .  A
C80         C307   1.419   1_554  A
C80          N81   1.445       .  S
N81          O86   1.263       .  A
N81         O313   1.262       .  A
N84          O87   1.260       .  A
N84         O316   1.262       .  A
O85         N309   1.262       .  A
O88         N312   1.262       .  A
C89          C90   1.407   1_554  A
C89          C94   1.409       .  A
C89          H96   1.081       .  S
C90         C287   1.510       .  S
C90         C319   1.419       .  A
C91          C92   1.395       .  A
C91         C318   1.419       .  A
C91          N98   1.437       .  S
C92         C321   1.398       .  A
C92          H97   1.085       .  S
C93          C94   1.423   1_556  A
C93         C320   1.400       .  A
C94          N95   1.439       .  S
N95          O99   1.262       .  A
N95         O328   1.262       .  A
N98         O102   1.262       .  A
N98         O329   1.262       .  A
O100        N323   1.263       .  A
O101        N326   1.262       .  A
C103        C108   1.405       .  A
C103        C332   1.402   1_554  A
C103        H110   1.084       .  S
C104        C105   1.420       .  A
C104        C331   1.401       .  A
C105        C106   1.406       .  A
C105        N112   1.442       .  S
C106        C107   1.406       .  A
C106        H111   1.081       .  S
C107        C336   1.417       .  A
C108        C335   1.418   1_554  A
C108        N109   1.439       .  S
N109        O113   1.262       .  A
N109        O114   1.263       .  A
N112        O115   1.261       .  A
N112        O344   1.263       .  A
O116        N340   1.263       .  A
C117        C118   1.401       .  A
C117        C122   1.399       .  A
C117        H124   1.084       .  S
C118        C575   1.413       .  A
C119        C120   1.399       .  A
C119        C574   1.412   1_545  A
C119        N126   1.433       .  S
C120        C577   1.401   1_545  A
C120        H125   1.084       .  S
C121        C513   1.476       .  S
C121        C122   1.416       .  A
C121        C576   1.401       .  A
C122        N123   1.441       .  S
N123        O128   1.262       .  A
N123        O583   1.261       .  A
N126        O129   1.262       .  A
N126        O586   1.261       .  A
O127        N579   1.261       .  A
O130        N582   1.261       .  A
C131        C136   1.410       .  A
C131        C588   1.406       .  A
C131        H138   1.083       .  S
C132        C133   1.416       .  A
C132        C587   1.404       .  A
C133        C134   1.388       .  A
C133        N140   1.433       .  S
C134        C135   1.414       .  A
C134        H139   1.080       .  S
C135        C514   1.556       .  S
C135        C592   1.428       .  A
C136        C591   1.425       .  A
C136        N137   1.434       .  S
N137        O141   1.263       .  A
N137        O598   1.262       .  A
N140        O144   1.262       .  A
N140        O599   1.262       .  A
O142        N593   1.262       .  A
O143        N596   1.262   1_545  A
C145        C146   1.402       .  A
C145        C150   1.407       .  A
C145        H152   1.083       .  S
C146        C603   1.416   1_565  A
C147        C148   1.395       .  A
C147        C602   1.415       .  A
C147        N154   1.440       .  S
C148        C605   1.399       .  A
C148        H153   1.080       .  S
C149        C150   1.420       .  A
C149        C604   1.399   1_565  A
C150        N151   1.448       .  S
N151        O155   1.262       .  A
N151        O612   1.263       .  A
N154        O158   1.262       .  A
N154        O613   1.262       .  A
O156        N607   1.263       .  A
O157        N610   1.262       .  A
C159        C160   1.419       .  A
C159        C164   1.393       .  A
C159        H166   1.080       .  S
C160        C617   1.429       .  A
C161        C162   1.408       .  A
C161        C616   1.428       .  A
C161        N168   1.433       .  S
C162        C619   1.402       .  A
C162        H167   1.083       .  S
C163        C164   1.412       .  A
C163        C618   1.403       .  A
C164        N165   1.434       .  S
N165        O169   1.262       .  A
N165        O626   1.263       .  A
N168        O172   1.263       .  A
N168        O627   1.263       .  A
O170        N621   1.263       .  A
O171        N624   1.262       .  A
C173        C174   1.402       .  A
C173        C178   1.409       .  A
C173        H180   1.084       .  S
C174       C1087   1.409       .  A
C175        C176   1.402       .  A
C175       C1086   1.410   1_455  A
C175        N182   1.443       .  S
C176       C1089   1.406   1_455  A
C176        H181   1.081       .  S
C177        C914   1.498       .  S
C177        C178   1.421       .  A
C177       C1088   1.405       .  A
C178        N179   1.439       .  S
N179        O183   1.263       .  A
N179        O184   1.260       .  A
N182        O185   1.261       .  A
N182        O186   1.262       .  A
C187        C192   1.399       .  A
C187       C1100   1.406       .  A
C187        H194   1.082       .  S
C188        C189   1.424   1_655  A
C188       C1099   1.406       .  A
C189        C190   1.412       .  A
C189        N196   1.447       .  S
C190        C191   1.402   1_455  A
C190        H195   1.083       .  S
C191       C1104   1.408       .  A
C192       C1103   1.407       .  A
C192        N193   1.443       .  S
N193        O197   1.262       .  A
N193        O198   1.263       .  A
N196        O199   1.262       .  A
N196        O200   1.263       .  A
C201        C202   1.409   1_455  A
C201        C206   1.399       .  A
C201        H208   1.084       .  S
C202        C913   1.511       .  S
C202       C1115   1.422       .  A
C203        C204   1.407       .  A
C203       C1114   1.420       .  A
C203        N210   1.428       .  S
C204       C1117   1.401       .  A
C204        H209   1.084       .  S
C205        C206   1.408       .  A
C205       C1116   1.402   1_455  A
C206        N207   1.431       .  S
N207        O211   1.262       .  A
N207        O212   1.262       .  A
N210        O213   1.262       .  A
N210        O214   1.260       .  A
C215        C216   1.406   1_455  A
C215        C220   1.404       .  A
C215        H222   1.082       .  S
C216        C913   1.507       .  S
C216       C1129   1.416       .  A
C217        C218   1.400       .  A
C217       C1128   1.412       .  A
C217       N1136   1.427       .  S
C218       C1131   1.402       .  A
C218        H223   1.084       .  S
C219        C220   1.412   1_655  A
C219       C1130   1.401       .  A
C220       N1133   1.429       .  S
N221       C1132   1.429       .  S
N221        O226   1.262       .  A
N221       O1137   1.262       .  A
N224       C1129   1.430       .  S
N224        O227   1.260       .  A
N224       O1140   1.260       .  A
O225       N1133   1.262       .  A
O228       N1136   1.261       .  A
C229       C1142   1.376       .  D
C229       C1342   1.511       .  S
C229       C1356   1.507       .  S
C230       C1141   1.375       .  D
C230       C1317   1.498       .  S
C230        C416   1.488       .  S
O231        C242   1.294       .  A
O232        C243   1.291       .  A
O232       Zr266   2.434       .  S
O233        C244   1.289       .  A
O233      Zr1151   2.424       .  S
O234        C245   1.288       .  A
O234       Zr239   2.416   1_565  S
O235        C245   1.292       .  A
O235       Zr725   2.442   1_565  S
O236        C244   1.293       .  A
O236       Zr268   2.441       .  S
O237        C243   1.294       .  A
O237       Zr695   2.450       .  S
O238        C242   1.291   1_455  A
O238       Zr239   2.441       .  S
Zr239      O1145   2.423   1_455  S
Zr239       O693   2.444   1_545  S
Zr239       O696   2.335   1_545  S
Zr239      O1153   2.332   1_455  S
Zr239       O249   2.347       .  S
Zr239      O1615   2.342   1_445  S
O240       Zr695   2.337       .  S
O240       Zr266   2.340       .  S
O240       Zr269   2.344       .  S
O241      Zr1151   2.333       .  S
O241       Zr951   2.344       .  S
O241       Zr268   2.337       .  S
C242        C447   1.482       .  S
C243        C433   1.480       .  S
C244        C391   1.490       .  S
C245        C377   1.464       .  S
H246        O247   0.966       .  S
O247      Zr1607   2.338       .  S
O247      Zr1178   2.343       .  S
O247       Zr724   2.346       .  S
H248        O249   0.966       .  S
O249       Zr725   2.344       .  S
O250        C273   1.289       .  A
O251       C1186   1.295   1_455  A
O251       Zr267   2.452   1_556  S
O252        C275   1.293       .  A
O252       Zr724   2.446       .  S
O253        C276   1.292       .  A
O253       Zr269   2.443       .  S
O254        C277   1.290   1_554  A
O254       Zr497   2.431       .  S
O255        C278   1.292       .  A
O256        C279   1.285       .  A
O256      Zr1182   2.408       .  S
O257        C280   1.285       .  A
O257       Zr270   2.420   1_455  S
O258        C279   1.292       .  A
O258       Zr496   2.440   1_556  S
O259        C280   1.298       .  A
O260        C275   1.293       .  A
O260      Zr1178   2.434       .  S
O261        C278   1.294   1_556  A
O261      Zr1179   2.447   1_556  S
O262        C277   1.297   1_554  A
O262       Zr267   2.462       .  S
O263        C276   1.294       .  A
O263       Zr266   2.439       .  S
O264        C273   1.291       .  A
O264       Zr270   2.440       .  S
O265        C274   1.290       .  A
O265      Zr1638   2.435       .  S
Zr266      O1172   2.442   1_455  S
Zr266      O1159   2.343   1_455  S
Zr266       O956   2.333   1_455  S
Zr267      O1173   2.452   1_454  S
Zr267       O925   2.344   1_455  S
Zr267       O271   2.342   1_554  S
Zr267      O1194   2.344   1_454  S
Zr268       O708   2.450   1_545  S
Zr268       O486   2.428       .  S
Zr268       O703   2.347   1_545  S
Zr268       O500   2.339   1_545  S
Zr269       O691   2.445       .  S
Zr269       O482   2.429       .  S
Zr269       O705   2.346       .  S
Zr269       O499   2.351       .  S
Zr270      O1168   2.430       .  S
Zr270      O1633   2.437       .  S
Zr270       O727   2.350   1_655  S
Zr270      O1184   2.333       .  S
Zr270       O284   2.339   1_655  S
Zr270      O1650   2.338       .  S
O271       Zr497   2.347   1_556  S
O271       Zr726   2.344   1_455  S
O272       Zr950   2.333   1_556  S
O272       Zr496   2.336   1_556  S
O272      Zr1182   2.332       .  S
C273        C419   1.463       .  S
C274       O1163   1.295       .  A
C274        C402   1.475       .  S
C275        C290   1.484       .  S
C276        C321   1.481       .  S
C277        C332   1.483       .  S
C278        C307   1.473   1_554  S
C279        C346   1.456       .  S
C280        C360   1.488       .  S
H281        O282   0.966       .  S
O282      Zr1179   2.343   1_556  S
O282      Zr1638   2.336       .  S
H283        O284   0.965       .  S
C285        C286   1.388   1_545  D
C285        C805   1.475   1_545  S
C285        C388   1.557       .  S
C286        C819   1.555       .  S
C286        C374   1.474       .  S
C287        C288   1.381       .  D
C287        C335   1.511       .  S
C288        C304   1.499       .  S
C289        C290   1.406       .  A
C289        C294   1.414       .  A
C289        H296   1.084       .  S
C291        C292   1.393       .  A
C291        N298   1.432       .  S
C292        H297   1.081       .  S
C293        C294   1.426       .  A
C294        N295   1.436       .  S
N295        O299   1.263       .  A
N298        O302   1.262       .  A
C303        C308   1.411       .  A
C303        H310   1.083       .  S
C304        C305   1.408       .  A
C305        C306   1.397       .  A
C305        N312   1.429       .  S
C306        C307   1.401       .  A
C306        H311   1.084       .  S
C308        N309   1.445       .  S
N309        O314   1.263       .  A
N312        O315   1.260       .  A
C317        C318   1.409       .  A
C317        C322   1.412       .  A
C317        H324   1.083       .  S
C319        C320   1.397       .  A
C319        N326   1.435       .  S
C320        H325   1.084       .  S
C321        C322   1.418       .  A
C322        N323   1.440       .  S
N323        O327   1.263       .  A
N326        O330   1.262       .  A
C331        C336   1.403       .  A
C331        H338   1.084       .  S
C332        C333   1.421       .  A
C333        C334   1.407       .  A
C333        N340   1.442       .  S
C334        C335   1.406       .  A
C334        H339   1.081       .  S
C336        N337   1.438       .  S
N337        O341   1.262       .  A
N337        O342   1.263       .  A
N340        O343   1.261       .  A
C345        C346   1.401       .  A
C345        C350   1.399       .  A
C345        H352   1.083       .  S
C346        C803   1.411       .  A
C347        C802   1.413   1_545  A
C347        C348   1.399       .  A
C347        N354   1.433       .  S
C348        C805   1.401   1_545  A
C348        H353   1.084       .  S
C349        C741   1.469       .  S
C349        C804   1.404       .  A
C349        C350   1.410       .  A
C350        N351   1.436       .  S
N351        O811   1.261       .  A
N351        O356   1.262       .  A
N354        O357   1.262       .  A
N354        O814   1.261       .  A
O355        N807   1.260       .  A
O358        N810   1.261       .  A
C359        C816   1.406       .  A
C359        C364   1.410       .  A
C359        H366   1.083       .  S
C360        C815   1.396       .  A
C360        C361   1.422       .  A
C361        C362   1.409       .  A
C361        N368   1.435       .  S
C362        C363   1.409       .  A
C362        H367   1.084       .  S
C363        C742   1.544       .  S
C363        C820   1.428       .  A
C364        C819   1.425       .  A
C364        N365   1.435       .  S
N365        O369   1.263       .  A
N365        O826   1.262       .  A
N368        O827   1.262       .  A
N368        O372   1.262       .  A
O370        N821   1.262       .  A
O371        N824   1.262   1_545  A
C373        C374   1.402       .  A
C373        C378   1.408       .  A
C373        H380   1.083       .  S
C374        C831   1.415   1_565  A
C375        C830   1.422       .  A
C375        C376   1.406       .  A
C375        N382   1.442       .  S
C376        C833   1.406       .  A
C376        H381   1.078       .  S
C377        C832   1.398   1_565  A
C377        C378   1.420       .  A
C378        N379   1.448       .  S
N379        O383   1.262       .  A
N379        O840   1.263       .  A
N382        O841   1.263       .  A
N382        O386   1.263       .  A
O384        N835   1.262       .  A
O385        N838   1.262       .  A
C387        C388   1.419       .  A
C387        C392   1.393       .  A
C387        H394   1.080       .  S
C388        C845   1.428       .  A
C389        C844   1.423       .  A
C389        C390   1.407       .  A
C389        N396   1.443       .  S
C390        C847   1.402       .  A
C390        H395   1.084       .  S
C391        C846   1.403       .  A
C391        C392   1.411       .  A
C392        N393   1.434       .  S
N393        O397   1.262       .  A
N393        O854   1.263       .  A
N396        O855   1.263       .  A
N396        O400   1.261       .  A
O398        N849   1.261       .  A
O399        N852   1.262       .  A
C401        C402   1.402       .  A
C401        C406   1.409       .  A
C401        H408   1.084       .  S
C402       C1315   1.410       .  A
C403       C1314   1.409   1_455  A
C403        C404   1.400       .  A
C403        N410   1.442       .  S
C404       C1317   1.405   1_455  A
C404        H409   1.081       .  S
C405       C1142   1.501       .  S
C405       C1316   1.406       .  A
C405        C406   1.419       .  A
C406        N407   1.436       .  S
N407        O411   1.263       .  A
N407        O412   1.260       .  A
N410        O413   1.262       .  A
N410        O414   1.262       .  A
C415       C1328   1.406       .  A
C415        C420   1.398       .  A
C415        H422   1.082       .  S
C416       C1327   1.406       .  A
C416        C417   1.424   1_655  A
C417        C418   1.409       .  A
C417        N424   1.449       .  S
C418        C419   1.399   1_455  A
C418        H423   1.082       .  S
C419       C1332   1.407       .  A
C420       C1331   1.408       .  A
C420        N421   1.442       .  S
N421        O425   1.261       .  A
N421        O426   1.262       .  A
N424        O427   1.261       .  A
N424        O428   1.263       .  A
C429        C430   1.410   1_455  A
C429        C434   1.399       .  A
C429        H436   1.084       .  S
C430       C1141   1.511       .  S
C430       C1343   1.420       .  A
C431       C1342   1.422       .  A
C431        C432   1.408       .  A
C431        N438   1.432       .  S
C432       C1345   1.402       .  A
C432        H437   1.084       .  S
C433       C1344   1.400   1_455  A
C433        C434   1.407       .  A
C434        N435   1.430       .  S
N435        O439   1.262       .  A
N435        O440   1.262       .  A
N438        O441   1.262       .  A
N438        O442   1.260       .  A
C443        C444   1.404   1_455  A
C443        C448   1.403       .  A
C443        H450   1.082       .  S
C444       C1141   1.502       .  S
C444       C1357   1.412       .  A
C445       C1356   1.416       .  A
C445        C446   1.401       .  A
C445       N1364   1.430       .  S
C446       C1359   1.401       .  A
C446        H451   1.084       .  S
C447       C1358   1.402       .  A
C447        C448   1.413   1_655  A
C448       N1361   1.429       .  S
N449       C1360   1.429       .  S
N449       O1365   1.262       .  A
N449        O454   1.262       .  A
N452       C1357   1.427       .  S
N452        O455   1.260       .  A
N452       O1368   1.261       .  A
O453       N1361   1.262       .  A
O456       N1364   1.260       .  A
C457       C1370   1.375       .  D
C457       C1570   1.509       .  S
C457       C1584   1.503       .  S
C458       C1369   1.376       .  D
C458       C1545   1.501       .  S
C458        C644   1.492       .  S
O459        C470   1.295       .  A
O459       Zr723   2.451   1_654  S
O460        C471   1.292       .  A
O460       Zr494   2.438       .  S
O461        C472   1.289       .  A
O461      Zr1379   2.425       .  S
O462        C473   1.288       .  A
O462       Zr467   2.416       .  S
O463        C473   1.294       .  A
O464        C472   1.294       .  A
O464       Zr496   2.445       .  S
O465        C471   1.294       .  A
O466        C470   1.291       .  A
O466       Zr467   2.438   1_655  S
Zr467      O1373   2.427   1_455  S
Zr467      O1381   2.336   1_455  S
Zr467       O477   2.348       .  S
Zr467       O931   2.338   1_455  S
O468       Zr494   2.332       .  S
O468       Zr497   2.339   1_565  S
O469      Zr1379   2.336       .  S
O469      Zr1635   2.343       .  S
O469       Zr496   2.339       .  S
C470        C675   1.484       .  S
C471        C661   1.482       .  S
C472        C619   1.490       .  S
C473        C605   1.465       .  S
H474        O475   0.966       .  S
O475       Zr923   2.342   1_565  S
O475      Zr1406   2.349       .  S
H476        O477   0.966       .  S
O477       Zr723   2.343   1_554  S
O478        C501   1.292       .  A
O478       Zr722   2.435   1_655  S
O479       C1414   1.294       .  A
O479       Zr495   2.450       .  S
O480        C503   1.293       .  A
O481        C504   1.287       .  A
O481       Zr497   2.429   1_565  S
O482        C505   1.290       .  A
O483        C506   1.292       .  A
O483       Zr724   2.444       .  S
O484        C507   1.291       .  A
O484      Zr1410   2.434   1_565  S
O485        C508   1.287       .  A
O485       Zr498   2.419   1_465  S
O486        C507   1.289   1_545  A
O487        C508   1.293       .  A
O487       Zr725   2.442   1_565  S
O488        C503   1.294       .  A
O488      Zr1406   2.440   1_556  S
O489        C506   1.294       .  A
O489      Zr1407   2.446       .  S
O490        C505   1.297       .  A
O490       Zr495   2.459       .  S
O491        C504   1.298       .  A
O491       Zr494   2.458       .  S
O492        C501   1.291       .  A
O492       Zr498   2.439   1_565  S
O493        C502   1.290       .  A
O493       Zr954   2.437       .  S
Zr494       O706   2.433   1_554  S
Zr494      O1400   2.438   1_454  S
Zr494      O1387   2.348   1_455  S
Zr494      O1640   2.338   1_454  S
Zr494       O740   2.329   1_554  S
Zr495       O687   2.448   1_455  S
Zr495      O1401   2.451   1_455  S
Zr495      O1609   2.343   1_455  S
Zr495       O705   2.340       .  S
Zr495       O499   2.345       .  S
Zr495      O1422   2.340   1_455  S
Zr496       O711   2.442       .  S
Zr496       O738   2.347   1_554  S
Zr497       O715   2.445   1_544  S
Zr497       O740   2.339   1_544  S
Zr498      O1396   2.434   1_545  S
Zr498       O949   2.435       .  S
Zr498      O1412   2.332   1_545  S
Zr498       O512   2.337   1_645  S
Zr498       O966   2.335       .  S
O500      Zr1634   2.338       .  S
O500      Zr1410   2.331   1_565  S
C501        C647   1.469       .  S
C502       O1391   1.295       .  A
C502        C630   1.474       .  S
C503        C518   1.486       .  S
C504        C549   1.491   1_554  S
C505        C560   1.480       .  S
C506        C535   1.473       .  S
C507        C574   1.466       .  S
C508        C588   1.490       .  S
H509        O510   0.966       .  S
O510      Zr1407   2.346       .  S
O510       Zr724   2.344       .  S
O510       Zr954   2.338       .  S
H511        O512   0.965       .  S
O512       Zr722   2.330       .  S
O512       Zr725   2.340   1_565  S
C513        C514   1.387       .  D
C513        C616   1.556       .  S
C514        C602   1.475       .  S
C515        C516   1.381       .  D
C515        C774   1.511       .  S
C515        C563   1.508       .  S
C516        C749   1.513       .  S
C516        C532   1.500       .  S
C517        C518   1.407       .  A
C517        C522   1.417       .  A
C517        H524   1.084       .  S
C518        C747   1.406   1_556  A
C519        C746   1.406       .  A
C519        C520   1.392       .  A
C519        N526   1.432       .  S
C520        C749   1.409       .  A
C520        H525   1.081       .  S
C521        C744   1.515       .  S
C521        C748   1.409   1_556  A
C521        C522   1.426       .  A
C522        N523   1.439       .  S
N523        O527   1.263       .  A
N523        O756   1.262       .  A
N526        O757   1.262       .  A
N526        O530   1.262       .  A
O528        N751   1.262       .  A
O529        N754   1.263       .  A
C531        C760   1.407   1_554  A
C531        C536   1.412       .  A
C531        H538   1.083       .  S
C532        C759   1.406       .  A
C532        C533   1.408       .  A
C533        C534   1.398       .  A
C533        N540   1.429       .  S
C534        C535   1.401       .  A
C534        H539   1.084       .  S
C535        C764   1.419       .  A
C536        C763   1.419   1_554  A
C536        N537   1.444       .  S
N537        O769   1.263       .  A
N537        O542   1.263       .  A
N540        O543   1.260       .  A
N540        O772   1.262       .  A
O541        N765   1.262       .  A
O544        N768   1.262       .  A
C545        C546   1.407   1_554  A
C545        C550   1.410       .  A
C545        H552   1.081       .  S
C546        C743   1.511       .  S
C546        C775   1.419       .  A
C547        C774   1.419       .  A
C547        C548   1.397       .  A
C547        N554   1.434       .  S
C548        C777   1.400       .  A
C548        H553   1.084       .  S
C549        C776   1.400       .  A
C549        C550   1.424   1_556  A
C550        N551   1.439       .  S
N551        O555   1.262       .  A
N551        O784   1.262       .  A
N554        O785   1.262       .  A
N554        O558   1.262       .  A
O556        N779   1.262       .  A
O557        N782   1.262       .  A
C559        C788   1.402   1_554  A
C559        C564   1.405       .  A
C559        H566   1.084       .  S
C560        C787   1.401       .  A
C560        C561   1.420       .  A
C561        C562   1.406       .  A
C561        N568   1.442       .  S
C562        C563   1.406       .  A
C562        H567   1.081       .  S
C563        C792   1.417       .  A
C564        C791   1.418       .  A
C564        N565   1.439       .  S
N565        O569   1.262       .  A
N565        O570   1.263       .  A
N568        O571   1.260       .  A
N568        O800   1.263       .  A
O572        N796   1.263       .  A
C573        C574   1.401       .  A
C573        C578   1.402       .  A
C573        H580   1.084       .  S
C575        C576   1.400       .  A
C575        N582   1.433       .  S
C576        H581   1.084       .  S
C577        C578   1.420       .  A
C578        N579   1.444       .  S
N579        O584   1.262       .  A
N582        O585   1.262       .  A
C587        C592   1.412       .  A
C587        H594   1.083       .  S
C588        C589   1.414       .  A
C589        C590   1.390       .  A
C589        N596   1.433       .  S
C590        C591   1.417       .  A
C590        H595   1.080       .  S
C592        N593   1.435       .  S
N593        O597   1.263       .  A
N596        O600   1.262       .  A
C601        C602   1.402       .  A
C601        C606   1.408       .  A
C601        H608   1.083       .  S
C603        C604   1.394       .  A
C603        N610   1.441       .  S
C604        H609   1.081       .  S
C605        C606   1.421       .  A
C606        N607   1.448       .  S
N607        O611   1.262       .  A
N610        O614   1.262       .  A
C615        C616   1.417       .  A
C615        C620   1.394       .  A
C615        H622   1.081       .  S
C617        C618   1.408       .  A
C617        N624   1.432       .  S
C618        H623   1.083       .  S
C619        C620   1.412       .  A
C620        N621   1.433       .  S
N621        O625   1.262       .  A
N624        O628   1.263       .  A
C629        C630   1.402       .  A
C629        C634   1.409       .  A
C629        H636   1.084       .  S
C630       C1543   1.409       .  A
C631       C1542   1.410       .  A
C631        C632   1.402       .  A
C631        N638   1.443       .  S
C632       C1545   1.405   1_455  A
C632        H637   1.081       .  S
C633       C1370   1.499       .  S
C633       C1544   1.405       .  A
C633        C634   1.420       .  A
C634        N635   1.437       .  S
N635        O639   1.263       .  A
N635        O640   1.260       .  A
N638        O641   1.261       .  A
N638        O642   1.262       .  A
C643       C1556   1.406       .  A
C643        C648   1.397       .  A
C643        H650   1.082       .  S
C644       C1555   1.406       .  A
C644        C645   1.423   1_655  A
C645        C646   1.411       .  A
C645        N652   1.447       .  S
C646        C647   1.402   1_455  A
C646        H651   1.083       .  S
C647       C1560   1.407       .  A
C648       C1559   1.406       .  A
C648        N649   1.441       .  S
N649        O653   1.261       .  A
N649        O654   1.263       .  A
N652        O655   1.262       .  A
N652        O656   1.263       .  A
C657        C658   1.409   1_455  A
C657        C662   1.399       .  A
C657        H664   1.084       .  S
C658       C1369   1.510       .  S
C658       C1571   1.420       .  A
C659       C1570   1.419       .  A
C659        C660   1.406       .  A
C659        N666   1.429       .  S
C660       C1573   1.402       .  A
C660        H665   1.084       .  S
C661       C1572   1.402   1_455  A
C661        C662   1.409       .  A
C662        N663   1.431       .  S
N663        O667   1.262       .  A
N663        O668   1.262       .  A
N666        O669   1.262       .  A
N666        O670   1.260       .  A
C671        C672   1.404   1_455  A
C671        C676   1.403       .  A
C671        H678   1.082       .  S
C672       C1369   1.505       .  S
C672       C1585   1.414       .  A
C673       C1584   1.414       .  A
C673        C674   1.400       .  A
C673       N1592   1.428       .  S
C674       C1587   1.400       .  A
C674        H679   1.084       .  S
C675       C1586   1.401       .  A
C675        C676   1.413   1_655  A
C676       N1589   1.429       .  S
N677       C1588   1.427       .  S
N677       O1593   1.262       .  A
N677        O682   1.262       .  A
N680       C1585   1.429       .  S
N680        O683   1.260       .  A
N680       O1596   1.260       .  A
O681       N1589   1.262       .  A
O684       N1592   1.261       .  A
C685       C1598   1.376       .  D
C685       C1798   1.510       .  S
C685       C1812   1.504       .  S
C686       C1597   1.375       .  D
C686       C1773   1.499       .  S
C686        C872   1.490       .  S
O687        C698   1.295       .  A
O688        C699   1.292       .  A
O688       Zr722   2.440       .  S
O689        C700   1.289       .  A
O689      Zr1607   2.427       .  S
O690        C701   1.290       .  A
O690       Zr695   2.426       .  S
O691        C701   1.293       .  A
O692        C700   1.292       .  A
O692       Zr724   2.441       .  S
O693        C699   1.293       .  A
O694        C698   1.290       .  A
O694       Zr695   2.435   1_655  S
Zr695      O1601   2.423   1_455  S
Zr695      O1609   2.336   1_455  S
Zr695       O705   2.344       .  S
Zr695      O1159   2.344   1_455  S
O696       Zr722   2.332       .  S
O696       Zr725   2.337   1_565  S
O697      Zr1607   2.336       .  S
O697      Zr1407   2.347       .  S
O697       Zr724   2.340       .  S
C698        C903   1.482       .  S
C699        C889   1.480       .  S
C700        C847   1.469       .  S
C701        C833   1.491       .  S
H702        O703   0.966       .  S
O703      Zr1151   2.342   1_565  S
O703      Zr1634   2.349       .  S
H704        O705   0.965       .  S
O706        C729   1.291   1_455  A
O707       C1642   1.295   1_455  A
O707       Zr723   2.450       .  S
O708        C731   1.293       .  A
O709        C732   1.287       .  A
O709       Zr725   2.427   1_565  S
O710        C733   1.291       .  A
O711        C734   1.292   1_554  A
O712        C735   1.291       .  A
O712      Zr1638   2.433   1_565  S
O713        C736   1.287       .  A
O713       Zr726   2.417   1_465  S
O714        C735   1.289   1_545  A
O715        C736   1.293       .  A
O716        C731   1.294       .  A
O716      Zr1634   2.438       .  S
O717        C734   1.295       .  A
O717      Zr1635   2.451   1_556  S
O718        C733   1.298       .  A
O718       Zr723   2.463       .  S
O719        C732   1.298       .  A
O719       Zr722   2.459       .  S
O720        C729   1.291       .  A
O720       Zr726   2.437   1_565  S
O721        C730   1.290       .  A
O721      Zr1182   2.438       .  S
Zr722      O1628   2.440   1_455  S
Zr722      O1615   2.350   1_455  S
Zr722      O1412   2.339   1_455  S
Zr723      O1629   2.446   1_455  S
Zr723      O1381   2.347   1_456  S
Zr723       O727   2.344       .  S
Zr723      O1650   2.347   1_455  S
Zr726      O1624   2.433   1_545  S
Zr726      O1177   2.431       .  S
Zr726      O1640   2.331   1_545  S
Zr726       O740   2.336   1_645  S
Zr726      O1194   2.335       .  S
O728      Zr1406   2.339   1_556  S
O728      Zr1638   2.332   1_565  S
C729        C875   1.467       .  S
C730       O1619   1.294       .  A
C730        C858   1.476       .  S
C731        C746   1.485       .  S
C732        C777   1.491       .  S
C733        C788   1.484       .  S
C734        C763   1.475       .  S
C735        C802   1.466       .  S
C736        C816   1.490       .  S
H737        O738   0.966       .  S
O738      Zr1635   2.340   1_556  S
O738      Zr1182   2.335       .  S
H739        O740   0.965       .  S
C741        C742   1.383       .  D
C741        C844   1.488       .  S
C742        C830   1.550       .  S
C743        C744   1.382       .  D
C743        C791   1.510   1_556  S
C744        C760   1.501       .  S
C745        C746   1.407       .  A
C745        C750   1.417       .  A
C745        H752   1.084       .  S
C747        C748   1.392       .  A
C747        N754   1.432       .  S
C748        H753   1.081       .  S
C749        C750   1.425       .  A
C750        N751   1.439       .  S
N751        O755   1.263       .  A
N754        O758   1.262       .  A
C759        C764   1.410       .  A
C759        H766   1.083       .  S
C760        C761   1.409       .  A
C761        C762   1.397       .  A
C761        N768   1.429       .  S
C762        C763   1.400       .  A
C762        H767   1.084       .  S
C764        N765   1.443       .  S
N765        O770   1.263       .  A
N768        O771   1.260       .  A
C773        C774   1.407       .  A
C773        C778   1.410       .  A
C773        H780   1.081       .  S
C775        C776   1.397       .  A
C775        N782   1.435       .  S
C776        H781   1.084       .  S
C777        C778   1.424       .  A
C778        N779   1.439       .  S
N779        O783   1.262       .  A
N782        O786   1.262       .  A
C787        C792   1.403       .  A
C787        H794   1.084       .  S
C788        C789   1.420       .  A
C789        C790   1.406       .  A
C789        N796   1.439       .  S
C790        C791   1.405   1_556  A
C790        H795   1.082       .  S
C792        N793   1.439       .  S
N793        O797   1.262       .  A
N793        O798   1.263       .  A
N796        O799   1.260       .  A
C801        C802   1.401       .  A
C801        C806   1.401       .  A
C801        H808   1.084       .  S
C803        C804   1.396       .  A
C803        N810   1.438       .  S
C804        H809   1.084       .  S
C805        C806   1.418       .  A
C806        N807   1.443       .  S
N807        O812   1.262       .  A
N810        O813   1.263       .  A
C815        C820   1.394       .  A
C815        H822   1.082       .  S
C816        C817   1.414       .  A
C817        C818   1.390       .  A
C817        N824   1.433       .  S
C818        C819   1.416       .  A
C818        H823   1.080       .  S
C820        N821   1.430       .  S
N821        O825   1.264       .  A
N824        O828   1.262       .  A
C829        C830   1.417       .  A
C829        C834   1.398       .  A
C829        H836   1.062       .  S
C831        C832   1.394       .  A
C831        N838   1.441       .  S
C832        H837   1.080       .  S
C833        C834   1.409       .  A
C834        N835   1.435       .  S
N835        O839   1.263       .  A
N838        O842   1.262       .  A
C843        C844   1.406       .  A
C843        C848   1.395       .  A
C843        H850   1.082       .  S
C845        C846   1.408       .  A
C845        N852   1.432       .  S
C846        H851   1.083       .  S
C847        C848   1.410       .  A
C848        N849   1.436       .  S
N849        O853   1.262       .  A
N852        O856   1.263       .  A
C857        C858   1.403       .  A
C857        C862   1.410       .  A
C857        H864   1.084       .  S
C858       C1771   1.410       .  A
C859       C1770   1.409   1_455  A
C859        C860   1.400       .  A
C859        N866   1.441       .  S
C860       C1773   1.405   1_455  A
C860        H865   1.081       .  S
C861       C1598   1.501       .  S
C861       C1772   1.405       .  A
C861        C862   1.420       .  A
C862        N863   1.437       .  S
N863        O867   1.263       .  A
N863        O868   1.260       .  A
N866        O869   1.261       .  A
N866        O870   1.262       .  A
C871       C1784   1.406       .  A
C871        C876   1.398       .  A
C871        H878   1.082       .  S
C872       C1783   1.406       .  A
C872        C873   1.423   1_655  A
C873        C874   1.410       .  A
C873        N880   1.446       .  S
C874        C875   1.402   1_455  A
C874        H879   1.083       .  S
C875       C1788   1.407       .  A
C876       C1787   1.407       .  A
C876        N877   1.441       .  S
N877        O881   1.262       .  A
N877        O882   1.263       .  A
N880        O883   1.262       .  A
N880        O884   1.263       .  A
C885        C886   1.409   1_455  A
C885        C890   1.399       .  A
C885        H892   1.084       .  S
C886       C1597   1.509       .  S
C886       C1799   1.419       .  A
C887       C1798   1.420       .  A
C887        C888   1.407       .  A
C887        N894   1.429       .  S
C888       C1801   1.402       .  A
C888        H893   1.084       .  S
C889       C1800   1.402   1_455  A
C889        C890   1.409       .  A
C890        N891   1.431       .  S
N891        O895   1.262       .  A
N891        O896   1.262       .  A
N894        O897   1.262       .  A
N894        O898   1.260       .  A
C899        C900   1.404   1_455  A
C899        C904   1.401       .  A
C899        H906   1.081       .  S
C900       C1597   1.503       .  S
C900       C1813   1.414       .  A
C901       C1812   1.414       .  A
C901        C902   1.401       .  A
C901       N1820   1.428       .  S
C902       C1815   1.401       .  A
C902        H907   1.084       .  S
C903       C1814   1.400       .  A
C903        C904   1.413   1_655  A
C904       N1817   1.427       .  S
N905       C1816   1.429       .  S
N905       O1821   1.262       .  A
N905        O910   1.262       .  A
N908       C1813   1.428       .  S
N908        O911   1.260       .  A
N908       O1824   1.261       .  A
O909       N1817   1.262       .  A
O912       N1820   1.261       .  A
C914       C1100   1.488       .  S
O915        C926   1.294       .  A
O915      Zr1179   2.446       .  S
O916        C927   1.291       .  A
O916       Zr950   2.434       .  S
O917        C928   1.288       .  A
O918        C929   1.288       .  A
O918       Zr923   2.416   1_565  S
O919        C929   1.292       .  A
O919      Zr1409   2.442   1_565  S
O920        C928   1.293       .  A
O920       Zr952   2.442       .  S
O921        C927   1.294       .  A
O921      Zr1379   2.451       .  S
O922        C926   1.291       .  A
O922       Zr923   2.441       .  S
Zr923      O1377   2.444   1_545  S
Zr923      O1380   2.334   1_545  S
Zr923       O933   2.346       .  S
O924      Zr1379   2.338       .  S
O924       Zr950   2.340       .  S
O924       Zr953   2.344       .  S
O925       Zr952   2.337       .  S
C926       C1131   1.482       .  S
C927       C1117   1.480       .  S
C928       C1075   1.490       .  S
C929       C1061   1.463       .  S
H930        O931   0.966       .  S
O931      Zr1408   2.346       .  S
H932        O933   0.966       .  S
O933      Zr1179   2.347       .  S
O933      Zr1409   2.344       .  S
O934        C957   1.289       .  A
O934      Zr1178   2.425       .  S
O935       Zr951   2.453       .  S
O936        C959   1.293       .  A
O936      Zr1408   2.445   1_556  S
O937        C960   1.292       .  A
O937       Zr953   2.443       .  S
O938        C961   1.290       .  A
O938      Zr1637   2.431       .  S
O939        C962   1.292       .  A
O939      Zr1180   2.442       .  S
O940        C963   1.285       .  A
O941        C964   1.285       .  A
O941       Zr954   2.419       .  S
O942        C963   1.292       .  A
O942      Zr1636   2.441       .  S
O943        C964   1.298       .  A
O943      Zr1181   2.455       .  S
O944        C959   1.292       .  A
O945        C962   1.294       .  A
O946        C961   1.297       .  A
O946       Zr951   2.462       .  S
O947        C960   1.294       .  A
O947       Zr950   2.440       .  S
O948        C957   1.291       .  A
O948       Zr954   2.440       .  S
O949        C958   1.290       .  A
Zr950      O1162   2.440   1_554  S
Zr950      O1196   2.332   1_554  S
Zr951      O1143   2.446       .  S
Zr951      O1161   2.348       .  S
Zr951       O955   2.341       .  S
Zr952      O1392   2.450   1_544  S
Zr952      O1167   2.441       .  S
Zr952      O1626   2.428   1_554  S
Zr952      O1387   2.347   1_545  S
Zr952      O1640   2.339   1_544  S
Zr952      O1194   2.346   1_554  S
Zr953      O1375   2.446       .  S
Zr953      O1622   2.429   1_554  S
Zr953      O1171   2.457   1_554  S
Zr953      O1389   2.346       .  S
Zr953      O1639   2.351   1_554  S
Zr953      O1196   2.339   1_554  S
Zr954      O1411   2.350       .  S
Zr954       O968   2.339       .  S
O955      Zr1637   2.347       .  S
O955      Zr1410   2.344       .  S
O956      Zr1636   2.337       .  S
C957       C1103   1.464       .  S
C958       C1086   1.475       .  S
C959        C974   1.484       .  S
C960       C1005   1.482       .  S
C961       C1016   1.483       .  S
C962        C991   1.472       .  S
C963       C1030   1.455       .  S
C964       C1044   1.488       .  S
H965        O966   0.966       .  S
O966      Zr1180   2.346       .  S
H967        O968   0.965       .  S
O968      Zr1178   2.328       .  S
O968      Zr1181   2.336       .  S
C969        C970   1.388   1_545  D
C969       C1489   1.475   1_545  S
C969       C1072   1.557       .  S
C970       C1503   1.556       .  S
C970       C1058   1.474       .  S
C971        C972   1.381       .  D
C971       C1230   1.510       .  S
C971       C1019   1.511       .  S
C972       C1205   1.516       .  S
C972        C988   1.499       .  S
C973        C974   1.406       .  A
C973        C978   1.414       .  A
C973        H980   1.084       .  S
C974       C1203   1.407   1_556  A
C975       C1202   1.406       .  A
C975        C976   1.393       .  A
C975        N982   1.432       .  S
C976       C1205   1.409       .  A
C976        H981   1.081       .  S
C977       C1200   1.516       .  S
C977       C1204   1.409   1_556  A
C977        C978   1.426       .  A
C978        N979   1.436       .  S
N979        O983   1.263       .  A
N979       O1212   1.261       .  A
N982       O1213   1.262       .  A
N982        O986   1.262       .  A
O984       N1207   1.262       .  A
O985       N1210   1.262       .  A
C987       C1216   1.406   1_554  A
C987        C992   1.411       .  A
C987        H994   1.083       .  S
C988       C1215   1.406       .  A
C988        C989   1.408       .  A
C989        C990   1.397       .  A
C989        N996   1.429       .  S
C990        C991   1.401       .  A
C990        H995   1.084       .  S
C991       C1220   1.419       .  A
C992       C1219   1.420   1_554  A
C992        N993   1.445       .  S
N993       O1225   1.262       .  A
N993        O998   1.263       .  A
N996        O999   1.260       .  A
N996       O1228   1.262       .  A
O997       N1221   1.262       .  A
O1000      N1224   1.262       .  A
C1001      C1002   1.409   1_554  A
C1001      C1006   1.413       .  A
C1001      H1008   1.083       .  S
C1002      C1199   1.505       .  S
C1002      C1231   1.419       .  A
C1003      C1230   1.419       .  A
C1003      C1004   1.397       .  A
C1003      N1010   1.435       .  S
C1004      C1233   1.400       .  A
C1004      H1009   1.084       .  S
C1005      C1232   1.398   1_554  A
C1005      C1006   1.418       .  A
C1006      N1007   1.440       .  S
N1007      O1011   1.263       .  A
N1007      O1240   1.263       .  A
N1010      O1241   1.262       .  A
N1010      O1014   1.262       .  A
O1012      N1235   1.262       .  A
O1013      N1238   1.262       .  A
C1015      C1244   1.401   1_554  A
C1015      C1020   1.402       .  A
C1015      H1022   1.084       .  S
C1016      C1243   1.402       .  A
C1016      C1017   1.421       .  A
C1017      C1018   1.407       .  A
C1017      N1024   1.442       .  S
C1018      C1019   1.406       .  A
C1018      H1023   1.081       .  S
C1019      C1248   1.418       .  A
C1020      C1247   1.417       .  A
C1020      N1021   1.438       .  S
N1021      O1025   1.262       .  A
N1021      O1026   1.263       .  A
N1024      O1027   1.261       .  A
N1024      O1256   1.263       .  A
O1028      N1252   1.263       .  A
C1029      C1030   1.401       .  A
C1029      C1034   1.399       .  A
C1029      H1036   1.083       .  S
C1030      C1487   1.411       .  A
C1031      C1486   1.412   1_545  A
C1031      C1032   1.399       .  A
C1031      N1038   1.434       .  S
C1032      C1489   1.401   1_545  A
C1032      H1037   1.084       .  S
C1033      C1425   1.469       .  S
C1033      C1488   1.404       .  A
C1033      C1034   1.410       .  A
C1034      N1035   1.436       .  S
N1035      O1495   1.262       .  A
N1035      O1040   1.262       .  A
N1038      O1041   1.262       .  A
N1038      O1498   1.261       .  A
O1039      N1491   1.261       .  A
O1042      N1494   1.261       .  A
C1043      C1500   1.405       .  A
C1043      C1048   1.410       .  A
C1043      H1050   1.083       .  S
C1044      C1499   1.394       .  A
C1044      C1045   1.422       .  A
C1045      C1046   1.410       .  A
C1045      N1052   1.436       .  S
C1046      C1047   1.410       .  A
C1046      H1051   1.084       .  S
C1047      C1426   1.544       .  S
C1047      C1504   1.428       .  A
C1048      C1503   1.426       .  A
C1048      N1049   1.434       .  S
N1049      O1053   1.263       .  A
N1049      O1510   1.262       .  A
N1052      O1511   1.262       .  A
N1052      O1056   1.262       .  A
O1054      N1505   1.263       .  A
O1055      N1508   1.262   1_545  A
C1057      C1058   1.402       .  A
C1057      C1062   1.408       .  A
C1057      H1064   1.083       .  S
C1058      C1515   1.415   1_565  A
C1059      C1514   1.422       .  A
C1059      C1060   1.406       .  A
C1059      N1066   1.442       .  S
C1060      C1517   1.405       .  A
C1060      H1065   1.078       .  S
C1061      C1516   1.398   1_565  A
C1061      C1062   1.420       .  A
C1062      N1063   1.448       .  S
N1063      O1067   1.262       .  A
N1063      O1524   1.263       .  A
N1066      O1525   1.263       .  A
N1066      O1070   1.263       .  A
O1068      N1519   1.262       .  A
O1069      N1522   1.262       .  A
C1071      C1072   1.419       .  A
C1071      C1076   1.393       .  A
C1071      H1078   1.080       .  S
C1072      C1529   1.429       .  A
C1073      C1528   1.423       .  A
C1073      C1074   1.407       .  A
C1073      N1080   1.443       .  S
C1074      C1531   1.402       .  A
C1074      H1079   1.084       .  S
C1075      C1530   1.403       .  A
C1075      C1076   1.411       .  A
C1076      N1077   1.434       .  S
N1077      O1081   1.262       .  A
N1077      O1538   1.263       .  A
N1080      O1539   1.263       .  A
N1080      O1084   1.261       .  A
O1082      N1533   1.261       .  A
O1083      N1536   1.262       .  A
C1085      C1086   1.402       .  A
C1085      C1090   1.409       .  A
C1085      H1092   1.084       .  S
C1087      C1088   1.400       .  A
C1087      N1094   1.442       .  S
C1088      H1093   1.081       .  S
C1089      C1090   1.419       .  A
C1090      N1091   1.436       .  S
N1091      O1095   1.263       .  A
N1091      O1096   1.260       .  A
N1094      O1097   1.262       .  A
N1094      O1098   1.262       .  A
C1099      C1104   1.398       .  A
C1099      H1106   1.082       .  S
C1100      C1101   1.424       .  A
C1101      C1102   1.409       .  A
C1101      N1108   1.449       .  S
C1102      C1103   1.399       .  A
C1102      H1107   1.082       .  S
C1104      N1105   1.442       .  S
N1105      O1109   1.262       .  A
N1105      O1110   1.262       .  A
N1108      O1111   1.261       .  A
N1108      O1112   1.263       .  A
C1113      C1114   1.409       .  A
C1113      C1118   1.399       .  A
C1113      H1120   1.084       .  S
C1115      C1116   1.408       .  A
C1115      N1122   1.432       .  S
C1116      H1121   1.084       .  S
C1117      C1118   1.407       .  A
C1118      N1119   1.430       .  S
N1119      O1123   1.262       .  A
N1119      O1124   1.262       .  A
N1122      O1125   1.262       .  A
N1122      O1126   1.260       .  A
C1127      C1128   1.404       .  A
C1127      C1132   1.403       .  A
C1127      H1134   1.082       .  S
C1129      C1130   1.401       .  A
C1130      H1135   1.084       .  S
C1131      C1132   1.413       .  A
N1133      O1138   1.262       .  A
N1136      O1139   1.260       .  A
C1142      C1328   1.493       .  S
O1143      C1154   1.294       .  A
O1144      C1155   1.292       .  A
O1144     Zr1178   2.439       .  S
O1145      C1156   1.289       .  A
O1146      C1157   1.288   1_545  A
O1146     Zr1151   2.416       .  S
O1147      C1157   1.292       .  A
O1147     Zr1637   2.441   1_565  S
O1148      C1156   1.293       .  A
O1148     Zr1180   2.442       .  S
O1149      C1155   1.293       .  A
O1149     Zr1607   2.447       .  S
O1150      C1154   1.292       .  A
O1150     Zr1151   2.443       .  S
Zr1151     O1605   2.450   1_545  S
Zr1151     O1608   2.335   1_545  S
Zr1151     O1161   2.349       .  S
O1152     Zr1607   2.336       .  S
O1152     Zr1178   2.328       .  S
O1152     Zr1181   2.339       .  S
O1153     Zr1180   2.336       .  S
C1154      C1359   1.484       .  S
C1155      C1345   1.482       .  S
C1156      C1303   1.490       .  S
C1157      C1289   1.462       .  S
H1158      O1159   0.966       .  S
O1159     Zr1636   2.349       .  S
H1160      O1161   0.966       .  S
O1161     Zr1637   2.345       .  S
O1162      C1185   1.293       .  A
O1163     Zr1179   2.452   1_556  S
O1164      C1187   1.294       .  A
O1164     Zr1636   2.451       .  S
O1165      C1188   1.286       .  A
O1165     Zr1181   2.425       .  S
O1166      C1189   1.290       .  A
O1166     Zr1409   2.430   1_556  S
O1167      C1190   1.292       .  A
O1168      C1191   1.290       .  A
O1169      C1192   1.284       .  A
O1169     Zr1182   2.404       .  S
O1170      C1191   1.289       .  A
O1170     Zr1408   2.430   1_556  S
O1171      C1192   1.295       .  A
O1172      C1187   1.294       .  A
O1173      C1190   1.295   1_556  A
O1174      C1189   1.297   1_554  A
O1174     Zr1179   2.457       .  S
O1175      C1188   1.298       .  A
O1175     Zr1178   2.460       .  S
O1176      C1185   1.290       .  A
O1176     Zr1182   2.437       .  S
O1177      C1186   1.289       .  A
Zr1179     O1183   2.341   1_554  S
Zr1180     O1620   2.450   1_545  S
Zr1180     O1398   2.426       .  S
Zr1180     O1615   2.347   1_545  S
Zr1180     O1412   2.340   1_545  S
Zr1181     O1603   2.447       .  S
Zr1181     O1394   2.433       .  S
Zr1181     O1617   2.346       .  S
Zr1181     O1411   2.344       .  S
Zr1182     O1639   2.336       .  S
Zr1182     O1196   2.336       .  S
O1183     Zr1409   2.347   1_556  S
O1183     Zr1638   2.344       .  S
O1184     Zr1408   2.340   1_556  S
C1185      C1331   1.471       .  S
C1186      C1314   1.473       .  S
C1187      C1202   1.488       .  S
C1188      C1233   1.490       .  S
C1189      C1244   1.480       .  S
C1190      C1219   1.474   1_554  S
C1191      C1258   1.466       .  S
C1192      C1272   1.491       .  S
H1193      O1194   0.966       .  S
H1195      O1196   0.965       .  S
C1197      C1198   1.388   1_545  D
C1197      C1717   1.475   1_545  S
C1197      C1300   1.557       .  S
C1198      C1731   1.555       .  S
C1198      C1286   1.474       .  S
C1199      C1200   1.379       .  D
C1199      C1247   1.509   1_556  S
C1200      C1216   1.502       .  S
C1201      C1202   1.408       .  A
C1201      C1206   1.418       .  A
C1201      H1208   1.084       .  S
C1203      C1204   1.391       .  A
C1203      N1210   1.433       .  S
C1204      H1209   1.081       .  S
C1205      C1206   1.426       .  A
C1206      N1207   1.439       .  S
N1207      O1211   1.263       .  A
N1210      O1214   1.263       .  A
C1215      C1220   1.411       .  A
C1215      H1222   1.083       .  S
C1216      C1217   1.409       .  A
C1217      C1218   1.399       .  A
C1217      N1224   1.430       .  S
C1218      C1219   1.401       .  A
C1218      H1223   1.084       .  S
C1220      N1221   1.445       .  S
N1221      O1226   1.263       .  A
N1224      O1227   1.260       .  A
C1229      C1230   1.406       .  A
C1229      C1234   1.409       .  A
C1229      H1236   1.081       .  S
C1231      C1232   1.395       .  A
C1231      N1238   1.437       .  S
C1232      H1237   1.085       .  S
C1233      C1234   1.424       .  A
C1234      N1235   1.439       .  S
N1235      O1239   1.262       .  A
N1238      O1242   1.262       .  A
C1243      C1248   1.404       .  A
C1243      H1250   1.084       .  S
C1244      C1245   1.420       .  A
C1245      C1246   1.406       .  A
C1245      N1252   1.442       .  S
C1246      C1247   1.406   1_556  A
C1246      H1251   1.081       .  S
C1248      N1249   1.439       .  S
N1249      O1253   1.262       .  A
N1249      O1254   1.263       .  A
N1252      O1255   1.261       .  A
C1257      C1258   1.401       .  A
C1257      C1262   1.400       .  A
C1257      H1264   1.084       .  S
C1258      C1715   1.413       .  A
C1259      C1714   1.412   1_545  A
C1259      C1260   1.399       .  A
C1259      N1266   1.433       .  S
C1260      C1717   1.401   1_545  A
C1260      H1265   1.084       .  S
C1261      C1653   1.475       .  S
C1261      C1716   1.401       .  A
C1261      C1262   1.417       .  A
C1262      N1263   1.442       .  S
N1263      O1723   1.260       .  A
N1263      O1268   1.262       .  A
N1266      O1269   1.262       .  A
N1266      O1726   1.261       .  A
O1267      N1719   1.261       .  A
O1270      N1722   1.261       .  A
C1271      C1728   1.406       .  A
C1271      C1276   1.410       .  A
C1271      H1278   1.083       .  S
C1272      C1727   1.404       .  A
C1272      C1273   1.416       .  A
C1273      C1274   1.388       .  A
C1273      N1280   1.433       .  S
C1274      C1275   1.414       .  A
C1274      H1279   1.080       .  S
C1275      C1654   1.556       .  S
C1275      C1732   1.428       .  A
C1276      C1731   1.425       .  A
C1276      N1277   1.434       .  S
N1277      O1281   1.263       .  A
N1277      O1738   1.262       .  A
N1280      O1739   1.262       .  A
N1280      O1284   1.262       .  A
O1282      N1733   1.262       .  A
O1283      N1736   1.262   1_545  A
C1285      C1286   1.402       .  A
C1285      C1290   1.407       .  A
C1285      H1292   1.083       .  S
C1286      C1743   1.415   1_565  A
C1287      C1742   1.415       .  A
C1287      C1288   1.395       .  A
C1287      N1294   1.440       .  S
C1288      C1745   1.399       .  A
C1288      H1293   1.080       .  S
C1289      C1744   1.399   1_565  A
C1289      C1290   1.420       .  A
C1290      N1291   1.448       .  S
N1291      O1295   1.262       .  A
N1291      O1752   1.263       .  A
N1294      O1753   1.262       .  A
N1294      O1298   1.262       .  A
O1296      N1747   1.263       .  A
O1297      N1750   1.262       .  A
C1299      C1300   1.418       .  A
C1299      C1304   1.393       .  A
C1299      H1306   1.080       .  S
C1300      C1757   1.429       .  A
C1301      C1756   1.429       .  A
C1301      C1302   1.409       .  A
C1301      N1308   1.432       .  S
C1302      C1759   1.402       .  A
C1302      H1307   1.083       .  S
C1303      C1758   1.403       .  A
C1303      C1304   1.412       .  A
C1304      N1305   1.434       .  S
N1305      O1309   1.262       .  A
N1305      O1766   1.263       .  A
N1308      O1767   1.262       .  A
N1308      O1312   1.263       .  A
O1310      N1761   1.263       .  A
O1311      N1764   1.262       .  A
C1313      C1314   1.402       .  A
C1313      C1318   1.409       .  A
C1313      H1320   1.084       .  S
C1315      C1316   1.402       .  A
C1315      N1322   1.443       .  S
C1316      H1321   1.081       .  S
C1317      C1318   1.421       .  A
C1318      N1319   1.439       .  S
N1319      O1323   1.263       .  A
N1319      O1324   1.260       .  A
N1322      O1325   1.261       .  A
N1322      O1326   1.262       .  A
C1327      C1332   1.398       .  A
C1327      H1334   1.081       .  S
C1328      C1329   1.423       .  A
C1329      C1330   1.412       .  A
C1329      N1336   1.447       .  S
C1330      C1331   1.403       .  A
C1330      H1335   1.083       .  S
C1332      N1333   1.443       .  S
N1333      O1337   1.262       .  A
N1333      O1338   1.263       .  A
N1336      O1339   1.262       .  A
N1336      O1340   1.263       .  A
C1341      C1342   1.409       .  A
C1341      C1346   1.399       .  A
C1341      H1348   1.084       .  S
C1343      C1344   1.407       .  A
C1343      N1350   1.428       .  S
C1344      H1349   1.084       .  S
C1345      C1346   1.408       .  A
C1346      N1347   1.431       .  S
N1347      O1351   1.262       .  A
N1347      O1352   1.262       .  A
N1350      O1353   1.262       .  A
N1350      O1354   1.260       .  A
C1355      C1356   1.406       .  A
C1355      C1360   1.404       .  A
C1355      H1362   1.082       .  S
C1357      C1358   1.400       .  A
C1358      H1363   1.084       .  S
C1359      C1360   1.412       .  A
N1361      O1366   1.262       .  A
N1364      O1367   1.260       .  A
C1370      C1556   1.490       .  S
O1371      C1382   1.294       .  A
O1371     Zr1635   2.447       .  S
O1372      C1383   1.292       .  A
O1372     Zr1406   2.440       .  S
O1373      C1384   1.289       .  A
O1374      C1385   1.290       .  A
O1374     Zr1379   2.426       .  S
O1375      C1385   1.293       .  A
O1376      C1384   1.292       .  A
O1376     Zr1408   2.440       .  S
O1377      C1383   1.293       .  A
O1378      C1382   1.290       .  A
O1378     Zr1379   2.435       .  S
Zr1379     O1389   2.344       .  S
O1380     Zr1406   2.332       .  S
O1380     Zr1409   2.338   1_565  S
O1381     Zr1408   2.340       .  S
C1382      C1587   1.481       .  S
C1383      C1573   1.480       .  S
C1384      C1531   1.469       .  S
C1385      C1517   1.491       .  S
H1386      O1387   0.966       .  S
H1388      O1389   0.965       .  S
O1389     Zr1635   2.340       .  S
O1390      C1413   1.291       .  A
O1390     Zr1634   2.433       .  S
O1391     Zr1407   2.450       .  S
O1392      C1415   1.293       .  A
O1393      C1416   1.287   1_554  A
O1393     Zr1409   2.427   1_565  S
O1394      C1417   1.291       .  A
O1395      C1418   1.292       .  A
O1395     Zr1636   2.443       .  S
O1396      C1419   1.291       .  A
O1397      C1420   1.287       .  A
O1397     Zr1410   2.417   1_565  S
O1398      C1419   1.288   1_545  A
O1399      C1420   1.294       .  A
O1399     Zr1637   2.445   1_565  S
O1400      C1415   1.294       .  A
O1401      C1418   1.295       .  A
O1402      C1417   1.298       .  A
O1402     Zr1407   2.463       .  S
O1403      C1416   1.298       .  A
O1403     Zr1406   2.459   1_556  S
O1404      C1413   1.291       .  A
O1404     Zr1410   2.436   1_565  S
O1405      C1414   1.290   1_655  A
Zr1406     O1618   2.434   1_554  S
Zr1406     O1652   2.330   1_554  S
Zr1407     O1599   2.451       .  S
Zr1407     O1617   2.343       .  S
Zr1407     O1411   2.345       .  S
Zr1408     O1623   2.444       .  S
Zr1408     O1650   2.345   1_554  S
Zr1409     O1627   2.442   1_544  S
Zr1409     O1652   2.340   1_544  S
Zr1410     O1424   2.336   1_545  S
C1413      C1559   1.466       .  S
C1414      C1542   1.476       .  S
C1415      C1430   1.485       .  S
C1416      C1461   1.491       .  S
C1417      C1472   1.484       .  S
C1418      C1447   1.475       .  S
C1419      C1486   1.466       .  S
C1420      C1500   1.490       .  S
H1421      O1422   0.965       .  S
O1422     Zr1636   2.347       .  S
H1423      O1424   0.965       .  S
O1424     Zr1634   2.329       .  S
O1424     Zr1637   2.338   1_565  S
C1425      C1426   1.383       .  D
C1425      C1528   1.488       .  S
C1426      C1514   1.550       .  S
C1427      C1428   1.382       .  D
C1427      C1686   1.511       .  S
C1427      C1475   1.510       .  S
C1428      C1661   1.515       .  S
C1428      C1444   1.502       .  S
C1429      C1430   1.407       .  A
C1429      C1434   1.417       .  A
C1429      H1436   1.084       .  S
C1430      C1659   1.406   1_556  A
C1431      C1658   1.406       .  A
C1431      C1432   1.392       .  A
C1431      N1438   1.432       .  S
C1432      C1661   1.409       .  A
C1432      H1437   1.081       .  S
C1433      C1656   1.514       .  S
C1433      C1660   1.409   1_556  A
C1433      C1434   1.425       .  A
C1434      N1435   1.439       .  S
N1435      O1439   1.263       .  A
N1435      O1668   1.262       .  A
N1438      O1669   1.262       .  A
N1438      O1442   1.262       .  A
O1440      N1663   1.262       .  A
O1441      N1666   1.262       .  A
C1443      C1672   1.406   1_554  A
C1443      C1448   1.410       .  A
C1443      H1450   1.083       .  S
C1444      C1671   1.407       .  A
C1444      C1445   1.409       .  A
C1445      C1446   1.398       .  A
C1445      N1452   1.429       .  S
C1446      C1447   1.400       .  A
C1446      H1451   1.084       .  S
C1447      C1676   1.419       .  A
C1448      C1675   1.418   1_554  A
C1448      N1449   1.443       .  S
N1449      O1681   1.262       .  A
N1449      O1454   1.263       .  A
N1452      O1455   1.260       .  A
N1452      O1684   1.262       .  A
O1453      N1677   1.263       .  A
O1456      N1680   1.262       .  A
C1457      C1458   1.406   1_554  A
C1457      C1462   1.410       .  A
C1457      H1464   1.081       .  S
C1458      C1655   1.510       .  S
C1458      C1687   1.419       .  A
C1459      C1686   1.420       .  A
C1459      C1460   1.397       .  A
C1459      N1466   1.435       .  S
C1460      C1689   1.400       .  A
C1460      H1465   1.084       .  S
C1461      C1688   1.400       .  A
C1461      C1462   1.424   1_556  A
C1462      N1463   1.439       .  S
N1463      O1467   1.262       .  A
N1463      O1696   1.262       .  A
N1466      O1697   1.262       .  A
N1466      O1470   1.262       .  A
O1468      N1691   1.262       .  A
O1469      N1694   1.262       .  A
C1471      C1700   1.401   1_554  A
C1471      C1476   1.403       .  A
C1471      H1478   1.084       .  S
C1472      C1699   1.402       .  A
C1472      C1473   1.420       .  A
C1473      C1474   1.405       .  A
C1473      N1480   1.439       .  S
C1474      C1475   1.405       .  A
C1474      H1479   1.082       .  S
C1475      C1704   1.418       .  A
C1476      C1703   1.417   1_554  A
C1476      N1477   1.439       .  S
N1477      O1481   1.262       .  A
N1477      O1482   1.263       .  A
N1480      O1483   1.260       .  A
N1480      O1712   1.263       .  A
O1484      N1708   1.263       .  A
C1485      C1486   1.400       .  A
C1485      C1490   1.401       .  A
C1485      H1492   1.084       .  S
C1487      C1488   1.396       .  A
C1487      N1494   1.439       .  S
C1488      H1493   1.084       .  S
C1489      C1490   1.419       .  A
C1490      N1491   1.444       .  S
N1491      O1496   1.262       .  A
N1494      O1497   1.263       .  A
C1499      C1504   1.393       .  A
C1499      H1506   1.082       .  S
C1500      C1501   1.414       .  A
C1501      C1502   1.390       .  A
C1501      N1508   1.433       .  S
C1502      C1503   1.416       .  A
C1502      H1507   1.080       .  S
C1504      N1505   1.429       .  S
N1505      O1509   1.263       .  A
N1508      O1512   1.262       .  A
C1513      C1514   1.418       .  A
C1513      C1518   1.397       .  A
C1513      H1520   1.062       .  S
C1515      C1516   1.394       .  A
C1515      N1522   1.441       .  S
C1516      H1521   1.080       .  S
C1517      C1518   1.409       .  A
C1518      N1519   1.435       .  S
N1519      O1523   1.263       .  A
N1522      O1526   1.262       .  A
C1527      C1528   1.406       .  A
C1527      C1532   1.395       .  A
C1527      H1534   1.081       .  S
C1529      C1530   1.409       .  A
C1529      N1536   1.432       .  S
C1530      H1535   1.083       .  S
C1531      C1532   1.410       .  A
C1532      N1533   1.436       .  S
N1533      O1537   1.262       .  A
N1536      O1540   1.263       .  A
C1541      C1542   1.403   1_655  A
C1541      C1546   1.410       .  A
C1541      H1548   1.084       .  S
C1543      C1544   1.400       .  A
C1543      N1550   1.441       .  S
C1544      H1549   1.081       .  S
C1545      C1546   1.420       .  A
C1546      N1547   1.437       .  S
N1547      O1551   1.263       .  A
N1547      O1552   1.260       .  A
N1550      O1553   1.261       .  A
N1550      O1554   1.262       .  A
C1555      C1560   1.398       .  A
C1555      H1562   1.082       .  S
C1556      C1557   1.423       .  A
C1557      C1558   1.410       .  A
C1557      N1564   1.446       .  S
C1558      C1559   1.402       .  A
C1558      H1563   1.083       .  S
C1560      N1561   1.441       .  S
N1561      O1565   1.262       .  A
N1561      O1566   1.263       .  A
N1564      O1567   1.262       .  A
N1564      O1568   1.263       .  A
C1569      C1570   1.409       .  A
C1569      C1574   1.399       .  A
C1569      H1576   1.084       .  S
C1571      C1572   1.407       .  A
C1571      N1578   1.429       .  S
C1572      H1577   1.084       .  S
C1573      C1574   1.409       .  A
C1574      N1575   1.431       .  S
N1575      O1579   1.262       .  A
N1575      O1580   1.262       .  A
N1578      O1581   1.262       .  A
N1578      O1582   1.260       .  A
C1583      C1584   1.404       .  A
C1583      C1588   1.401       .  A
C1583      H1590   1.081       .  S
C1585      C1586   1.402       .  A
C1586      H1591   1.084       .  S
C1587      C1588   1.413       .  A
N1589      O1594   1.262       .  A
N1592      O1595   1.259       .  A
C1598      C1784   1.492       .  S
O1599      C1610   1.295       .  A
O1600      C1611   1.292       .  A
O1600     Zr1634   2.438       .  S
O1601      C1612   1.289       .  A
O1602      C1613   1.288       .  A
O1602     Zr1607   2.416       .  S
O1603      C1613   1.293       .  A
O1604      C1612   1.294       .  A
O1604     Zr1636   2.446       .  S
O1605      C1611   1.294       .  A
O1606      C1610   1.291       .  A
O1606     Zr1607   2.438       .  S
Zr1607     O1617   2.348       .  S
O1608     Zr1634   2.331       .  S
O1608     Zr1637   2.339   1_565  S
O1609     Zr1636   2.340       .  S
C1610      C1815   1.483       .  S
C1611      C1801   1.482       .  S
C1612      C1759   1.491       .  S
C1613      C1745   1.465       .  S
H1614      O1615   0.966       .  S
H1616      O1617   0.966       .  S
O1618      C1641   1.292       .  A
O1619     Zr1635   2.450   1_556  S
O1620      C1643   1.293       .  A
O1621      C1644   1.287       .  A
O1621     Zr1637   2.429   1_565  S
O1622      C1645   1.290       .  A
O1623      C1646   1.292   1_554  A
O1624      C1647   1.291       .  A
O1625      C1648   1.287       .  A
O1625     Zr1638   2.420   1_565  S
O1626      C1647   1.289   1_545  A
O1627      C1648   1.293       .  A
O1628      C1643   1.294       .  A
O1629      C1646   1.294       .  A
O1630      C1645   1.297       .  A
O1630     Zr1635   2.459   1_556  S
O1631      C1644   1.298       .  A
O1631     Zr1634   2.458       .  S
O1632      C1641   1.291       .  A
O1632     Zr1638   2.439   1_565  S
O1633      C1642   1.290       .  A
Zr1635     O1639   2.344   1_554  S
Zr1638     O1652   2.337   1_545  S
C1641      C1787   1.469       .  S
C1642      C1770   1.474       .  S
C1643      C1658   1.486       .  S
C1644      C1689   1.492       .  S
C1645      C1700   1.480       .  S
C1646      C1675   1.473       .  S
C1647      C1714   1.466       .  S
C1648      C1728   1.490       .  S
H1649      O1650   0.966       .  S
H1651      O1652   0.965       .  S
C1653      C1654   1.388       .  D
C1653      C1756   1.557       .  S
C1654      C1742   1.475       .  S
C1655      C1656   1.381       .  D
C1655      C1703   1.509       .  S
C1656      C1672   1.499       .  S
C1657      C1658   1.407       .  A
C1657      C1662   1.417       .  A
C1657      H1664   1.084       .  S
C1659      C1660   1.392       .  A
C1659      N1666   1.432       .  S
C1660      H1665   1.081       .  S
C1661      C1662   1.426       .  A
C1662      N1663   1.439       .  S
N1663      O1667   1.263       .  A
N1666      O1670   1.262       .  A
C1671      C1676   1.412       .  A
C1671      H1678   1.083       .  S
C1672      C1673   1.408       .  A
C1673      C1674   1.398       .  A
C1673      N1680   1.429       .  S
C1674      C1675   1.401       .  A
C1674      H1679   1.084       .  S
C1676      N1677   1.444       .  S
N1677      O1682   1.263       .  A
N1680      O1683   1.260       .  A
C1685      C1686   1.407       .  A
C1685      C1690   1.410       .  A
C1685      H1692   1.081       .  S
C1687      C1688   1.397       .  A
C1687      N1694   1.434       .  S
C1688      H1693   1.084       .  S
C1689      C1690   1.424       .  A
C1690      N1691   1.439       .  S
N1691      O1695   1.262       .  A
N1694      O1698   1.262       .  A
C1699      C1704   1.405       .  A
C1699      H1706   1.084       .  S
C1700      C1701   1.421       .  A
C1701      C1702   1.406       .  A
C1701      N1708   1.442       .  S
C1702      C1703   1.406       .  A
C1702      H1707   1.081       .  S
C1704      N1705   1.439       .  S
N1705      O1709   1.262       .  A
N1705      O1710   1.263       .  A
N1708      O1711   1.260       .  A
C1713      C1714   1.401       .  A
C1713      C1718   1.401       .  A
C1713      H1720   1.084       .  S
C1715      C1716   1.399       .  A
C1715      N1722   1.433       .  S
C1716      H1721   1.084       .  S
C1717      C1718   1.419       .  A
C1718      N1719   1.443       .  S
N1719      O1724   1.262       .  A
N1722      O1725   1.262       .  A
C1727      C1732   1.412       .  A
C1727      H1734   1.083       .  S
C1728      C1729   1.414       .  A
C1729      C1730   1.390       .  A
C1729      N1736   1.433       .  S
C1730      C1731   1.416       .  A
C1730      H1735   1.080       .  S
C1732      N1733   1.435       .  S
N1733      O1737   1.263       .  A
N1736      O1740   1.262       .  A
C1741      C1742   1.402       .  A
C1741      C1746   1.408       .  A
C1741      H1748   1.083       .  S
C1743      C1744   1.394       .  A
C1743      N1750   1.441       .  S
C1744      H1749   1.081       .  S
C1745      C1746   1.420       .  A
C1746      N1747   1.448       .  S
N1747      O1751   1.262       .  A
N1750      O1754   1.262       .  A
C1755      C1756   1.418       .  A
C1755      C1760   1.393       .  A
C1755      H1762   1.081       .  S
C1757      C1758   1.408       .  A
C1757      N1764   1.432       .  S
C1758      H1763   1.083       .  S
C1759      C1760   1.412       .  A
C1760      N1761   1.433       .  S
N1761      O1765   1.262       .  A
N1764      O1768   1.263       .  A
C1769      C1770   1.402       .  A
C1769      C1774   1.409       .  A
C1769      H1776   1.084       .  S
C1771      C1772   1.402       .  A
C1771      N1778   1.443       .  S
C1772      H1777   1.081       .  S
C1773      C1774   1.420       .  A
C1774      N1775   1.437       .  S
N1775      O1779   1.263       .  A
N1775      O1780   1.260       .  A
N1778      O1781   1.261       .  A
N1778      O1782   1.262       .  A
C1783      C1788   1.397       .  A
C1783      H1790   1.082       .  S
C1784      C1785   1.423       .  A
C1785      C1786   1.411       .  A
C1785      N1792   1.447       .  S
C1786      C1787   1.402       .  A
C1786      H1791   1.083       .  S
C1788      N1789   1.441       .  S
N1789      O1793   1.261       .  A
N1789      O1794   1.263       .  A
N1792      O1795   1.262       .  A
N1792      O1796   1.263       .  A
C1797      C1798   1.408       .  A
C1797      C1802   1.399       .  A
C1797      H1804   1.084       .  S
C1799      C1800   1.406       .  A
C1799      N1806   1.429       .  S
C1800      H1805   1.084       .  S
C1801      C1802   1.409       .  A
C1802      N1803   1.431       .  S
N1803      O1807   1.262       .  A
N1803      O1808   1.262       .  A
N1806      O1809   1.262       .  A
N1806      O1810   1.260       .  A
C1811      C1812   1.404       .  A
C1811      C1816   1.403       .  A
C1811      H1818   1.082       .  S
C1813      C1814   1.400       .  A
C1814      H1819   1.084       .  S
C1815      C1816   1.413       .  A
N1817      O1822   1.262       .  A
N1820      O1823   1.260       .  A
