geometry optimzed in LAMMPS
_audit_creation_date              2020-11-30 
_audit_creation_method            'lammps2cif' 
_symmetry_space_group_name_H-M    'P1' 
_symmetry_Int_Tables_number       1 
_symmetry_cell_setting            triclinic 
loop_ 
_symmetry_equiv_pos_as_xyz 
  x,y,z 
_cell_length_a                    30.88561168 
_cell_length_b                    30.72835604949867 
_cell_length_c                    32.184032845864465 
_cell_angle_alpha                 88.70920505377244 
_cell_angle_beta                  91.40392858876237 
_cell_angle_gamma                 90.75991674339551 
loop_ 
_atom_site_label 
_atom_site_type_symbol 
_atom_site_fract_x 
_atom_site_fract_y 
_atom_site_fract_z 
_atom_site_charge 
In1        In  0.87594213  0.62256701  0.00154848     1.36900
C2          C  0.87734563  0.70799895  0.50558403     0.79100
O3          O  0.93033201  0.61351957  0.46073437    -0.59300
O4          O  0.86974926  0.60444331  0.42897082    -0.50200
C5          C  0.88910171  0.56025916  0.05922564     0.71800
O6          O  0.90130962  0.59915907  0.06444437    -0.45100
C7          C  0.79010117  0.61939301  0.99870541     0.76500
O8          O  0.88951311  0.68413208  0.03644001    -0.57000
O9          O  0.80505538  0.63693890  0.46669278    -0.47000
O10         O  0.90364974  0.68697326  0.48499461    -0.53400
C11         C  0.91038743  0.60743162  0.42670550     0.86700
O12         O  0.87458326  0.55229580  0.02321435    -0.55300
O13         O  0.81154720  0.63066851  0.03045349    -0.58600
In14       In  0.87165778  0.84130107  0.50433385     1.36900
C15         C  0.88410392  0.75591962  0.00631796     0.79100
O16         O  0.94940307  0.84069527  0.03307456    -0.59300
O17         O  0.90085115  0.86518876  0.07213692    -0.50200
C18         C  0.88485869  0.89616285  0.44086970     0.71800
O19         O  0.89153101  0.85588965  0.43899732    -0.45100
C20         C  0.78596908  0.84412011  0.50255780     0.76500
O21         O  0.89966362  0.77905787  0.48194909    -0.57000
O22         O  0.81714239  0.84947976  0.04089755    -0.47000
O23         O  0.87752076  0.77572555  0.03927026    -0.53400
C24         C  0.93985632  0.85439127  0.06832052     0.86700
O25         O  0.87526766  0.90932334  0.47632718    -0.55300
O26         O  0.80742493  0.83767372  0.47056432    -0.58600
In27       In  0.65301839  0.83590333  0.50243061     1.36900
C28         C  0.74776950  0.84534956  0.00594709     0.79100
O29         O  0.66337826  0.90786759  0.03191570    -0.59300
O30         O  0.63110353  0.85518250  0.06292036    -0.50200
C31         C  0.59540874  0.85287331  0.44207505     0.71800
O32         O  0.63502665  0.86267656  0.43902746    -0.45100
C33         C  0.64737145  0.74919760  0.50038418     0.76500
O34         O  0.71558744  0.85154898  0.47038092    -0.57000
O35         O  0.64869387  0.77685680  0.03119068    -0.47000
O36         O  0.72532601  0.83504101  0.03677763    -0.53400
C37         C  0.64480320  0.89399875  0.06418301     0.86700
O38         O  0.58429685  0.83912378  0.47757060    -0.55300
O39         O  0.65415679  0.77279441  0.46879650    -0.58600
In40       In  0.65717292  0.62334611  0.99563748     1.36900
C41         C  0.73723886  0.61264481  0.49280599     0.79100
O42         O  0.65481878  0.54957759  0.46574068    -0.59300
O43         O  0.62199778  0.59974401  0.43169944    -0.50200
C44         C  0.60211840  0.60786038  0.05560039     0.71800
O45         O  0.64079317  0.59503145  0.05799794    -0.45100
C46         C  0.65435043  0.70937610  0.99659642     0.76500
O47         O  0.72068654  0.61276325  0.02947329    -0.57000
O48         O  0.63859896  0.68131650  0.46544052    -0.47000
O49         O  0.71493798  0.63608432  0.46821159    -0.53400
C50         C  0.63646975  0.56149272  0.43212202     0.86700
O51         O  0.59030324  0.62427812  0.02091736    -0.55300
O52         O  0.66049065  0.68617675  0.02871521    -0.58600
C53         C  0.70522324  0.47404526  0.27304326     0.88000
C54         C  0.67767879  0.43257522  0.26858891    -0.52200
C55         C  0.63500537  0.43758320  0.27745129     0.11000
C56         C  0.62396736  0.48447575  0.29060907     0.21900
C57         C  0.68210274  0.50851146  0.24528518    -0.52900
C58         C  0.63977614  0.51440342  0.25498966     0.11100
C59         C  0.69792662  0.48878491  0.31777278    -0.52500
C60         C  0.65548220  0.49450245  0.32677500     0.11600
H61         H  0.69092728  0.40175140  0.25942378     0.16100
H62         H  0.58969107  0.48971204  0.29842561     0.01900
H63         H  0.69807121  0.52738951  0.22104049     0.16400
H64         H  0.72415476  0.49611774  0.33973444     0.16200
C65         C  0.81571908  0.46359255  0.21557120     0.88000
C66         C  0.84022013  0.42039192  0.22053639    -0.52200
C67         C  0.88323079  0.42352682  0.21106175     0.11000
C68         C  0.89721486  0.46988639  0.19615341     0.21900
C69         C  0.84238797  0.49623414  0.24185272    -0.52900
C70         C  0.88481651  0.49941552  0.23163338     0.11100
C71         C  0.82319569  0.47882052  0.17035687    -0.52500
C72         C  0.86578547  0.48252099  0.16036590     0.11600
H73         H  0.82513784  0.39033460  0.23161367     0.16100
H74         H  0.93150133  0.47361386  0.18723408     0.01900
H75         H  0.82888886  0.51653350  0.26534243     0.16400
H76         H  0.79713361  0.48868600  0.14902876     0.16200
C77         C  0.51614008  0.67192885  0.21833334     0.88000
C78         C  0.47598462  0.64177040  0.22165689    -0.52200
C79         C  0.48368336  0.59978279  0.21038794     0.11000
C80         C  0.53016871  0.59214743  0.19663923     0.21900
C81         C  0.55175616  0.64857961  0.24490492    -0.52900
C82         C  0.55903383  0.60673845  0.23323660     0.11100
C83         C  0.53078312  0.66757224  0.17314883    -0.52500
C84         C  0.53813202  0.62584785  0.16211533     0.11600
H85         H  0.44501415  0.65262057  0.23247424     0.16100
H86         H  0.53589265  0.55822685  0.18706995     0.01900
H87         H  0.56951191  0.66368304  0.27042380     0.16400
H88         H  0.53624684  0.69518707  0.15215489     0.16200
C89         C  0.50944323  0.78219696  0.27867856     0.88000
C90         C  0.46720795  0.80806988  0.27284143    -0.52200
C91         C  0.47094430  0.85109225  0.28341221     0.11000
C92         C  0.51714762  0.86383496  0.29917473     0.21900
C93         C  0.54314511  0.80840077  0.25345649    -0.52900
C94         C  0.54717196  0.85096438  0.26424631     0.11100
C95         C  0.52341935  0.78903661  0.32437440    -0.52500
C96         C  0.52766124  0.83164570  0.33488987     0.11600
H97         H  0.43703073  0.79354950  0.26155671     0.16100
H98         H  0.52172174  0.89803762  0.30853445     0.01900
H99         H  0.56271591  0.79446439  0.22967417     0.16400
H100        H  0.53123904  0.76247784  0.34601376     0.16200
C101        C  0.00086314  0.66169239  0.25708170     0.90400
C102        C  0.04412405  0.63861149  0.26646107    -0.52200
C103        C  0.03903152  0.59818810  0.28478891     0.11000
C104        C  0.99151298  0.58494038  0.29201598     0.21900
C105        C  0.97451725  0.62925495  0.23052292    -0.52900
C106        C  0.96919198  0.58935721  0.24904525     0.11100
C107        C  0.97754604  0.66198896  0.29891571    -0.52500
C108        C  0.97293213  0.62165446  0.31701691     0.11600
H109        H  0.07541969  0.65284360  0.25905559     0.16100
H110        H  0.98744026  0.55219332  0.30690297     0.01900
H111        H  0.96020329  0.63742512  0.20022540     0.16400
H112        H  0.96534725  0.69127280  0.31258170     0.16200
C113        C  0.02240889  0.78721406  0.23500352     0.88000
C114        C  0.06712164  0.80960877  0.23909959    -0.52200
C115        C  0.06809058  0.85179026  0.22476068     0.11000
C116        C  0.02393935  0.86758779  0.20688026     0.21900
C117        C  0.99112895  0.81759691  0.25684188    -0.52900
C118        C  0.99196253  0.85964012  0.24186151     0.11100
C119        C  0.00996588  0.79237381  0.18833562    -0.52500
C120        C  0.01038045  0.83444956  0.17413017     0.11600
H121        H  0.09545464  0.79357122  0.25256953     0.16100
H122        H  0.02328167  0.90135985  0.19403780     0.01900
H123        H  0.96980978  0.80665333  0.28141562     0.16400
H124        H  0.99986209  0.76623889  0.16814412     0.16200
C125        C  0.69831946  0.98223119  0.23382684     0.88000
C126        C  0.66996713  0.02322881  0.23034552    -0.52200
C127        C  0.62905000  0.01505622  0.21447096     0.11000
C128        C  0.62048282  0.96693280  0.20413441     0.21900
C129        C  0.67188739  0.94980468  0.26040190    -0.52900
C130        C  0.63131861  0.94151928  0.24464363     0.11100
C131        C  0.69698898  0.96370443  0.18962918    -0.52500
C132        C  0.65622133  0.95561308  0.17442084     0.11600
H133        H  0.68156604  0.05538586  0.23880591     0.16100
H134        H  0.58732621  0.96015700  0.19147623     0.01900
H135        H  0.68434061  0.93447340  0.28891836     0.16400
H136        H  0.72575887  0.95718030  0.17214535     0.16200
C137        C  0.81970649  0.96051626  0.26681027     0.88000
C138        C  0.84411700  0.00304012  0.25607871    -0.52200
C139        C  0.88604146  0.00444292  0.27088622     0.11000
C140        C  0.89981635  0.96210533  0.29463625     0.21900
C141        C  0.84791367  0.92427873  0.24997291    -0.52900
C142        C  0.88978369  0.92484897  0.26442969     0.11100
C143        C  0.82424904  0.95508886  0.31422844    -0.52500
C144        C  0.86618469  0.95548388  0.32868518     0.11600
H145        H  0.82929132  0.03006794  0.23898748     0.16100
H146        H  0.93330730  0.96179871  0.30765952     0.01900
H147        H  0.83547849  0.89942877  0.22917446     0.16400
H148        H  0.79695215  0.94842993  0.33416149     0.16200
In149      In  0.14895908  0.33824782  0.49679558     1.36900
C150        C  0.14819324  0.25746271  0.99635659     0.79100
O151        O  0.21229784  0.33851817  0.46462361    -0.59300
O152        O  0.21538921  0.35623125  0.02995847    -0.50200
C153        C  0.13310555  0.39619995  0.43651909     0.71800
O154        O  0.12021177  0.35710897  0.43411822    -0.45100
C155        C  0.09476913  0.34979551  0.05795777     0.76500
O156        O  0.13702069  0.27474265  0.46442400    -0.57000
O157        O  0.13342753  0.36328893  0.06174350    -0.47000
O158        O  0.15929774  0.27798038  0.02828866    -0.53400
C159        C  0.23674404  0.34801620  0.99811962     0.86700
O160        O  0.14951982  0.40655936  0.47119672    -0.55300
O161        O  0.08345971  0.33785699  0.02201047    -0.58600
In162      In  0.15092045  0.12466031  0.99705910     1.36900
C163        C  0.14530124  0.20440685  0.49716354     0.79100
O164        O  0.21496916  0.13162982  0.03000738    -0.59300
O165        O  0.21476304  0.11034742  0.46568133    -0.50200
C166        C  0.13918643  0.06660633  0.05703372     0.71800
O167        O  0.12435767  0.10460796  0.05861403    -0.45100
C168        C  0.09509014  0.10232253  0.43645898     0.76500
O169        O  0.14014445  0.18745722  0.02863537    -0.57000
O170        O  0.13393866  0.09021385  0.43576202    -0.47000
O171        O  0.15484575  0.18358412  0.46559449    -0.53400
C172        C  0.23627786  0.12183488  0.99885512     0.86700
O173        O  0.15492779  0.05661530  0.02278954    -0.55300
O174        O  0.08348968  0.11747616  0.47050715    -0.58600
In175      In  0.36933345  0.12357192  0.50552052     1.36900
C176        C  0.37389908  0.21198262  0.00049903     0.79100
O177        O  0.30638259  0.12763302  0.46966601    -0.59300
O178        O  0.30580763  0.11651063  0.03287176    -0.50200
C179        C  0.38974321  0.06545318  0.45053663     0.71800
O180        O  0.40021908  0.10512363  0.44654020    -0.45100
C181        C  0.42711340  0.10801142  0.05946837     0.76500
O182        O  0.37956581  0.18696635  0.47130621    -0.57000
O183        O  0.38852783  0.09405867  0.06122381    -0.47000
O184        O  0.36732461  0.18953609  0.03290424    -0.53400
C185        C  0.28341165  0.12179505  0.99984395     0.86700
O186        O  0.37266700  0.05463381  0.48452633    -0.55300
O187        O  0.43692116  0.12729419  0.02594676    -0.58600
In188      In  0.36667331  0.34178180  0.49992571     1.36900
C189        C  0.28395678  0.34859807  0.99790371     0.79100
O190        O  0.36305805  0.27783645  0.46873830    -0.59300
O191        O  0.38275540  0.28178029  0.03173826    -0.50200
C192        C  0.42383112  0.35778853  0.44194544     0.71800
O193        O  0.38442347  0.36747773  0.43713251    -0.45100
C194        C  0.38562083  0.40551761  0.05323398     0.76500
O195        O  0.30326092  0.35419395  0.46659571    -0.57000
O196        O  0.39676744  0.36642463  0.05927085    -0.47000
O197        O  0.30650104  0.34215850  0.03045456    -0.53400
C198        C  0.37355391  0.25939928  0.00015460     0.86700
O199        O  0.43499368  0.34413519  0.47783745    -0.55300
O200        O  0.37096920  0.41476476  0.01723584    -0.58600
C201        C  0.20621469  0.48378997  0.27609522     0.88000
C202        C  0.17744590  0.45202603  0.25082134    -0.52200
C203        C  0.13498206  0.45216043  0.26160546     0.11000
C204        C  0.12520107  0.48219931  0.29720897     0.21900
C205        C  0.18372033  0.52821204  0.27096604    -0.52900
C206        C  0.14123170  0.52756613  0.28239301     0.11100
C207        C  0.19908295  0.46957651  0.32164573    -0.52500
C208        C  0.15658929  0.46811738  0.33233714     0.11600
H209        H  0.18931674  0.43146176  0.22668683     0.16100
H210        H  0.09078588  0.47957572  0.30597707     0.01900
H211        H  0.19981107  0.55729957  0.25885891     0.16400
H212        H  0.22503808  0.45874776  0.34264739     0.16200
C213        C  0.31438830  0.48270207  0.21343933     0.88000
C214        C  0.32041896  0.47381557  0.16705201    -0.52200
C215        C  0.36267462  0.47343770  0.15579326     0.11000
C216        C  0.39494753  0.48279985  0.19128492     0.21900
C217        C  0.34218115  0.44766053  0.23633823    -0.52900
C218        C  0.38455834  0.44826083  0.22464761     0.11100
C219        C  0.33846458  0.52611186  0.22092239    -0.52500
C220        C  0.38080774  0.52632567  0.20950459     0.11600
H221        H  0.29389446  0.46554393  0.14576555     0.16100
H222        H  0.42880504  0.48144521  0.18086289     0.01900
H223        H  0.32983219  0.42539243  0.26002411     0.16400
H224        H  0.32324163  0.55420828  0.23396409     0.16200
C225        C  0.50965174  0.18078780  0.21999837     0.88000
C226        C  0.49643003  0.17217752  0.17453604    -0.52200
C227        C  0.49584664  0.12927869  0.16482294     0.11000
C228        C  0.50944661  0.09876022  0.20085204     0.21900
C229        C  0.47807120  0.15203593  0.24562527    -0.52900
C230        C  0.47878802  0.10899169  0.23577690     0.11100
C231        C  0.55415833  0.15891530  0.22626549    -0.52500
C232        C  0.55428028  0.11577411  0.21600816     0.11600
H233        H  0.48600820  0.19754818  0.15259173     0.16100
H234        H  0.50711971  0.06403806  0.19262482     0.01900
H235        H  0.45810396  0.16427504  0.26997315     0.16400
H236        H  0.58279511  0.17596774  0.23800096     0.16200
C237        C  0.50168982  0.29147122  0.27887175     0.88000
C238        C  0.46077412  0.31072020  0.25725733    -0.52200
C239        C  0.45309552  0.35286231  0.26730931     0.11000
C240        C  0.48631483  0.37155481  0.29870754     0.21900
C241        C  0.53876766  0.32379739  0.26841022    -0.52900
C242        C  0.53066627  0.36588956  0.27928731     0.11100
C243        C  0.49418685  0.29748946  0.32548474    -0.52500
C244        C  0.48592557  0.33935293  0.33556430     0.11600
H245        H  0.43986246  0.29269907  0.23596844     0.16100
H246        H  0.47972935  0.40539948  0.30796619     0.01900
H247        H  0.56858431  0.31393780  0.25438730     0.16400
H248        H  0.49327408  0.27074691  0.34811573     0.16200
C249        C  0.21594947  0.98529754  0.22367839     0.88000
C250        C  0.20885936  0.99806847  0.17742086    -0.52200
C251        C  0.16661120  0.00494834  0.16637550     0.11000
C252        C  0.13533116  0.99868459  0.20192915     0.21900
C253        C  0.19442044  0.02208222  0.24760436    -0.52900
C254        C  0.15214677  0.02888616  0.23605672     0.11100
C255        C  0.18613634  0.94511718  0.23066247    -0.52500
C256        C  0.14366440  0.95268676  0.21931967     0.11600
H257        H  0.23498034  0.00244894  0.15565093     0.16100
H258        H  0.10098250  0.00413413  0.19234365     0.01900
H259        H  0.21086790  0.04051434  0.27183205     0.16400
H260        H  0.19737790  0.91448152  0.24412300     0.16200
C261        C  0.32642786  0.98402502  0.28637093     0.88000
C262        C  0.33345079  0.99163638  0.33312542    -0.52200
C263        C  0.37542996  0.00031910  0.34441303     0.11000
C264        C  0.40684177  0.00006334  0.30835685     0.21900
C265        C  0.34599610  0.02514639  0.26540616    -0.52900
C266        C  0.38813679  0.03347624  0.27651764     0.11100
C267        C  0.35753210  0.94683272  0.27669989    -0.52500
C268        C  0.39984445  0.95511923  0.28871501     0.11600
H269        H  0.30720797  0.99270059  0.35494687     0.16100
H270        H  0.44077656  0.00690711  0.31862364     0.01900
H271        H  0.32786226  0.04617900  0.24391397     0.16400
H272        H  0.34668569  0.91681791  0.26246524     0.16200
C273        C  0.00642138  0.16265606  0.26482842     0.88000
C274        C  0.02016497  0.16029286  0.31137588    -0.52200
C275        C  0.03273037  0.11978686  0.32484367     0.11000
C276        C  0.03034942  0.08547636  0.29119888     0.21900
C277        C  0.04479873  0.14425319  0.24162102    -0.52900
C278        C  0.05763802  0.10433347  0.25569851     0.11100
C279        C  0.97054118  0.12750279  0.26046107    -0.52500
C280        C  0.98316107  0.08680179  0.27453596     0.11600
H281        H  0.02077294  0.18824011  0.33146421     0.16100
H282        H  0.04083844  0.05268097  0.30234535     0.01900
H283        H  0.06028317  0.16130824  0.21591522     0.16400
H284        H  0.93855458  0.13458278  0.24763203     0.16200
C285        C  0.02403410  0.28573083  0.23196725     0.88000
C286        C  0.03121312  0.28585749  0.18467656    -0.52200
C287        C  0.03547448  0.32682160  0.16742814     0.11000
C288        C  0.03209298  0.36348756  0.19850114     0.21900
C289        C  0.06243572  0.31269992  0.24933436    -0.52900
C290        C  0.06678554  0.35301649  0.23195785     0.11100
C291        C  0.98392947  0.31462917  0.23736639    -0.52500
C292        C  0.98841746  0.35551617  0.21942243     0.11600
H293        H  0.03512077  0.25644732  0.16712609     0.16100
H294        H  0.03575958  0.39635505  0.18380637     0.01900
H295        H  0.08504722  0.30068361  0.27319664     0.16400
H296        H  0.95538088  0.30401832  0.25398723     0.16200
C297        C  0.99521127  0.20828630  0.24826225    -0.14900
C298        C  0.02456310  0.24076484  0.25297941    -0.30100
H299        H  0.96539680  0.21380806  0.23046926     0.14100
H300        H  0.05325512  0.23310544  0.27187391     0.14700
C301        C  0.12334239  0.05926784  0.25690682    -0.14900
C302        C  0.09181165  0.08006924  0.23534723    -0.30100
H303        H  0.12693456  0.06323324  0.29028052     0.14100
H304        H  0.09079042  0.07932580  0.20160054     0.14700
C305        C  0.26374131  0.97923892  0.23503698    -0.14900
C306        C  0.27879468  0.97653473  0.27465627    -0.30100
H307        H  0.28708056  0.98240011  0.21038240     0.14100
H308        H  0.25548139  0.97454915  0.29939864     0.14700
C309        C  0.41190535  0.07251095  0.26030054    -0.14900
C310        C  0.45517126  0.07348983  0.25770904    -0.30100
H311        H  0.39334360  0.09955956  0.24724674     0.14100
H312        H  0.47358766  0.04472748  0.26633495     0.14700
C313        C  0.51005285  0.24408517  0.26875414    -0.14900
C314        C  0.50882132  0.22915724  0.22969590    -0.30100
H315        H  0.51384578  0.22070509  0.29437663     0.14100
H316        H  0.50354722  0.25235607  0.20413919     0.14700
C317        C  0.41942738  0.42099811  0.24313292    -0.14900
C318        C  0.41556288  0.37797955  0.25051682    -0.30100
H319        H  0.45095144  0.43667027  0.24701432     0.14100
H320        H  0.38563139  0.36094654  0.24228372     0.14700
C321        C  0.10068091  0.42498075  0.24251622    -0.14900
C322        C  0.10369322  0.38166704  0.24352885    -0.30100
H323        H  0.07017621  0.44026159  0.23386630     0.14100
H324        H  0.13272155  0.36675734  0.25694361     0.14700
C325        C  0.26696754  0.48335156  0.22508377    -0.14900
C326        C  0.25383733  0.48438055  0.26470360    -0.30100
H327        H  0.24266906  0.48254021  0.20013948     0.14100
H328        H  0.27815991  0.48384738  0.28966659     0.14700
C329        C  0.47099055  0.35096573  0.37584910    -0.11700
C330        C  0.45249315  0.35756041  0.40758821    -0.13300
C331        C  0.37600649  0.45619252  0.11682307    -0.11700
C332        C  0.38431169  0.43578420  0.08649958    -0.13300
C333        C  0.39236771  0.03605603  0.41672838    -0.11700
C334        C  0.38730516  0.01653472  0.38486689    -0.13300
C335        C  0.47702299  0.11419450  0.12620536    -0.11700
C336        C  0.45630965  0.10689441  0.09482922    -0.13300
C337        C  0.06782074  0.10362416  0.39953964    -0.11700
C338        C  0.04969037  0.11029635  0.36633417    -0.13300
C339        C  0.14308123  0.03888184  0.09329898    -0.11700
C340        C  0.15277146  0.02091153  0.12581051    -0.13300
C341        C  0.06730874  0.34411523  0.09321039    -0.11700
C342        C  0.04975760  0.33555148  0.12558194    -0.13300
C343        C  0.13403845  0.42550697  0.40104357    -0.11700
C344        C  0.14229747  0.44719054  0.37039595    -0.13300
C345        C  0.91308001  0.04485310  0.26618970    -0.14900
C346        C  0.95574030  0.04646481  0.27565394    -0.30100
H347        H  0.89680408  0.07414627  0.25526141     0.14100
H348        H  0.97207131  0.01699889  0.28574805     0.14700
C349        C  0.59464701  0.04756799  0.20596799    -0.14900
C350        C  0.59331433  0.08778654  0.22173767    -0.30100
H351        H  0.56827335  0.03604690  0.18631384     0.14100
H352        H  0.62034317  0.09989227  0.24052355     0.14700
C353        C  0.74408993  0.98936734  0.25104102    -0.14900
C354        C  0.77324470  0.95704954  0.25060781    -0.30100
H355        H  0.75345748  0.02093497  0.26310257     0.14100
H356        H  0.76302947  0.92619237  0.23740997     0.14700
C357        C  0.10835382  0.87894874  0.22586682    -0.14900
C358        C  0.10632330  0.92249789  0.22412504    -0.30100
H359        H  0.13952229  0.86300251  0.22721749     0.14100
H360        H  0.07500679  0.93792504  0.22416091     0.14700
C361        C  0.96322040  0.89454542  0.25554814    -0.14900
C362        C  0.91999705  0.88935489  0.25484536    -0.30100
H363        H  0.97753086  0.92639533  0.26108901     0.14100
H364        H  0.90610088  0.85855258  0.24473475     0.14700
C365        C  0.11232881  0.56582909  0.27685421    -0.14900
C366        C  0.07415170  0.56740287  0.29604386    -0.30100
H367        H  0.12124587  0.59121932  0.25454438     0.14100
H368        H  0.06586768  0.54253447  0.31895056     0.14700
C369        C  0.02202757  0.74129488  0.25418403    -0.14900
C370        C  0.00444391  0.70604819  0.23570886    -0.30100
H371        H  0.03462638  0.73760859  0.28586561     0.14100
H372        H  0.98970479  0.70909839  0.20503744     0.14700
C373        C  0.43307462  0.88118208  0.28074775    -0.14900
C374        C  0.43681670  0.92451872  0.28628305    -0.30100
H375        H  0.40123956  0.86679358  0.27518643     0.14100
H376        H  0.46849396  0.93904439  0.29158483     0.14700
C377        C  0.57783431  0.88151010  0.24378688    -0.14900
C378        C  0.60065200  0.91125762  0.26533947    -0.30100
H379        H  0.58339147  0.87800729  0.21082607     0.14100
H380        H  0.59876461  0.91177582  0.29898506     0.14700
C381        C  0.45269689  0.56257379  0.21155019    -0.14900
C382        C  0.40943184  0.56551867  0.21346099    -0.30100
H383        H  0.46730408  0.53094949  0.20945598     0.14100
H384        H  0.39456641  0.59695907  0.21703857     0.14700
C385        C  0.50880629  0.71947515  0.22894371    -0.14900
C386        C  0.50633033  0.73387390  0.26811655    -0.30100
H387        H  0.50944237  0.74346553  0.20363680     0.14100
H388        H  0.50733229  0.71002913  0.29355858     0.14700
C389        C  0.91315621  0.38576548  0.21646642    -0.14900
C390        C  0.95643182  0.39125164  0.21942985    -0.30100
H391        H  0.89934659  0.35308141  0.21763725     0.14100
H392        H  0.97022752  0.42382295  0.21859823     0.14700
C393        C  0.91490833  0.53046888  0.25188537    -0.14900
C394        C  0.94263178  0.55478412  0.22961031    -0.30100
H395        H  0.91123638  0.53650112  0.28474708     0.14100
H396        H  0.94262332  0.55232999  0.19598183     0.14700
C397        C  0.56115892  0.40364449  0.27588549    -0.14900
C398        C  0.60440420  0.39969951  0.27581788    -0.30100
H399        H  0.54706371  0.43570392  0.27656489     0.14100
H400        H  0.61830673  0.36745711  0.27537039     0.14700
C401        C  0.61217914  0.54738714  0.23366343    -0.14900
C402        C  0.59018966  0.57696053  0.25474830    -0.30100
H403        H  0.61097980  0.54803404  0.19989202     0.14100
H404        H  0.59482792  0.57905911  0.28823427     0.14700
C405        C  0.75285246  0.46827519  0.26407940    -0.14900
C406        C  0.76771524  0.46095201  0.22578405    -0.30100
H407        H  0.77589637  0.47197352  0.28979907     0.14100
H408        H  0.74434192  0.45767529  0.20020457     0.14700
C409        C  0.55625778  0.61486115  0.12285454    -0.11700
C410        C  0.57508805  0.60831778  0.09123803    -0.13300
C411        C  0.64253052  0.51461709  0.36475291    -0.11700
C412        C  0.63608338  0.53475286  0.39584481    -0.13300
C413        C  0.64334606  0.91902960  0.10131380    -0.11700
C414        C  0.64770949  0.93688270  0.13422056    -0.13300
C415        C  0.54640469  0.84484689  0.37441726    -0.11700
C416        C  0.56642030  0.85224999  0.40631247    -0.13300
C417        C  0.88403199  0.92379040  0.40414127    -0.11700
C418        C  0.87769411  0.94149001  0.37067450    -0.13300
C419        C  0.99138523  0.84685475  0.13426342    -0.11700
C420        C  0.97010474  0.85362423  0.10291371    -0.13300
C421        C  0.93225196  0.60802315  0.38779478    -0.11700
C422        C  0.95083562  0.61367689  0.35551958    -0.13300
C423        C  0.87955591  0.50519264  0.12278468    -0.11700
C424        C  0.88740633  0.52851876  0.09298107    -0.13300
In425      In  0.86977052  0.62258864  0.49633947     1.36900
C426        C  0.88269713  0.70850055  0.00487133     0.79100
O427        O  0.94322700  0.62646119  0.97607973    -0.59300
O428        O  0.89181069  0.60213153  0.93741110    -0.50200
C429        C  0.89304721  0.57197118  0.56037122     0.71800
O430        O  0.89811099  0.61278416  0.56076994    -0.45100
C431        C  0.78438075  0.61318415  0.49194150     0.76500
O432        O  0.84986500  0.68507380  0.52457199    -0.57000
O433        O  0.81241881  0.60943040  0.96809654    -0.47000
O434        O  0.87293446  0.68899085  0.97198702    -0.53400
C435        C  0.93084772  0.61453553  0.94036717     0.86700
O436        O  0.88109400  0.55674618  0.52582886    -0.55300
O437        O  0.80743565  0.59170313  0.51748880    -0.58600
In438      In  0.88069880  0.84183732  0.00912723     1.36900
C439        C  0.87674765  0.75540983  0.50556739     0.79100
O440        O  0.93759577  0.83755508  0.53488649    -0.59300
O441        O  0.88818840  0.86947462  0.56696232    -0.50200
C442        C  0.89396859  0.90439401  0.95313593     0.71800
O443        O  0.90642630  0.86588542  0.94818256    -0.45100
C444        C  0.79502273  0.84491149  0.00768622     0.76500
O445        O  0.89023427  0.78001891  0.97461442    -0.57000
O446        O  0.80829019  0.85051512  0.53534056    -0.47000
O447        O  0.85147356  0.77561653  0.52804418    -0.53400
C448        C  0.92611431  0.85463466  0.56794976     0.86700
O449        O  0.87869690  0.91185313  0.98822247    -0.55300
O450        O  0.81663660  0.83910792  0.97574545    -0.58600
In451      In  0.66186728  0.84249504  0.00205619     1.36900
C452        C  0.73873332  0.84207793  0.50208575     0.79100
O453        O  0.65682671  0.90312904  0.52838958    -0.59300
O454        O  0.62810796  0.85278309  0.56541453    -0.50200
C455        C  0.60868450  0.86224394  0.93917927     0.71800
O456        O  0.64778481  0.87471674  0.94008953    -0.45100
C457        C  0.65527633  0.75669906  0.99825323     0.76500
O458        O  0.72641235  0.85495304  0.97317677    -0.57000
O459        O  0.64274793  0.76977052  0.53349570    -0.47000
O460        O  0.71816648  0.82943228  0.53343240    -0.53400
C461        C  0.64169036  0.89172564  0.56305372     0.86700
O462        O  0.59554412  0.84427690  0.97223681    -0.55300
O463        O  0.66444349  0.78032564  0.96728323    -0.58600
In464      In  0.65186117  0.61532687  0.49458662     1.36900
C465        C  0.74287023  0.61914402  0.99747555     0.79100
O466        O  0.65526420  0.55546323  0.97156678    -0.59300
O467        O  0.62735357  0.60605389  0.93364191    -0.50200
C468        C  0.60021065  0.59789985  0.55730962     0.71800
O469        O  0.64025361  0.59042362  0.55924826    -0.45100
C470        C  0.64684568  0.70156146  0.49855504     0.76500
O471        O  0.71595563  0.59032321  0.51887446    -0.57000
O472        O  0.64882524  0.68871742  0.96333857    -0.47000
O473        O  0.72131654  0.62660240  0.96450686    -0.53400
C474        C  0.63844321  0.56666838  0.93691491     0.86700
O475        O  0.58555600  0.60973747  0.52192111    -0.55300
O476        O  0.65656941  0.67774283  0.52962513    -0.58600
C477        C  0.71092890  0.48413276  0.78042937     0.88000
C478        C  0.68818342  0.43993347  0.77498834    -0.52200
C479        C  0.64524998  0.43988203  0.78415645     0.11000
C480        C  0.62884376  0.48500001  0.79756099     0.21900
C481        C  0.68428029  0.51619849  0.75301780    -0.52900
C482        C  0.64140767  0.51657148  0.76203044     0.11100
C483        C  0.70174469  0.49707418  0.82527497    -0.52500
C484        C  0.65878217  0.49804544  0.83400997     0.11600
H485        H  0.70462537  0.41119497  0.76472837     0.16100
H486        H  0.59392975  0.48663298  0.80453336     0.01900
H487        H  0.69810449  0.53733475  0.72917020     0.16400
H488        H  0.72689613  0.50715527  0.84735257     0.16200
C489        C  0.82162547  0.48945127  0.72326725     0.88000
C490        C  0.84698939  0.44726235  0.73010707    -0.52200
C491        C  0.88989733  0.45094789  0.72085456     0.11000
C492        C  0.90339624  0.49737898  0.70578341     0.21900
C493        C  0.84639681  0.52346583  0.74943828    -0.52900
C494        C  0.88910179  0.52764099  0.74012404     0.11100
C495        C  0.82990882  0.50341016  0.67786627    -0.52500
C496        C  0.87272277  0.50783846  0.66899168     0.11600
H497        H  0.83214114  0.41698858  0.74100007     0.16100
H498        H  0.93790197  0.50215946  0.69818374     0.01900
H499        H  0.83147750  0.54296602  0.77276292     0.16400
H500        H  0.80421919  0.51096406  0.65528471     0.16200
C501        C  0.53306424  0.67880882  0.71751430     0.88000
C502        C  0.48756955  0.65901614  0.72227769    -0.52200
C503        C  0.48493478  0.61570628  0.71386851     0.11000
C504        C  0.52882390  0.59602451  0.70184053     0.21900
C505        C  0.56250278  0.65076217  0.74616115    -0.52900
C506        C  0.56052037  0.60746780  0.73777608     0.11100
C507        C  0.54604879  0.66775522  0.67315387    -0.52500
C508        C  0.54389369  0.62441305  0.66510691     0.11600
H509        H  0.45983866  0.67770884  0.73128556     0.16100
H510        H  0.52812115  0.56073789  0.69538849     0.01900
H511        H  0.58377030  0.66407634  0.77021086     0.16400
H512        H  0.55705515  0.69192075  0.65047496     0.16200
C513        C  0.53160027  0.79074131  0.77351340     0.88000
C514        C  0.48749221  0.81278246  0.76942752    -0.52200
C515        C  0.48828188  0.85554069  0.78001513     0.11000
C516        C  0.53374879  0.87252999  0.79360493     0.21900
C517        C  0.56201188  0.81930402  0.74670628    -0.52900
C518        C  0.56316850  0.86200083  0.75742389     0.11100
C519        C  0.54711694  0.79862882  0.81855255    -0.52500
C520        C  0.54821838  0.84143553  0.82888775     0.11600
H521        H  0.45813953  0.79597675  0.75904150     0.16100
H522        H  0.53564668  0.90731043  0.80197074     0.01900
H523        H  0.58211063  0.80705553  0.72249784     0.16400
H524        H  0.55718284  0.77271412  0.84005338     0.16200
C525        C  0.02214056  0.67864510  0.77309933     0.90400
C526        C  0.06096964  0.64767919  0.77532375    -0.52200
C527        C  0.05088939  0.60650302  0.78996132     0.11000
C528        C  0.00308610  0.60034857  0.80116947     0.21900
C529        C  0.98780522  0.65429229  0.74662129    -0.52900
C530        C  0.97750341  0.61364307  0.76156300     0.11100
C531        C  0.00447845  0.67698316  0.81794807    -0.52500
C532        C  0.99457286  0.63590421  0.83214350     0.11600
H533        H  0.09308299  0.65782470  0.76591341     0.16100
H534        H  0.99498926  0.56705937  0.81305874     0.01900
H535        H  0.97295170  0.66808332  0.71843690     0.16400
H536        H  0.00054326  0.70493726  0.83735550     0.16200
C537        C  0.01618664  0.80441956  0.74263475     0.88000
C538        C  0.05957123  0.83035478  0.73916688    -0.52200
C539        C  0.05500094  0.87006791  0.71872313     0.11000
C540        C  0.00856022  0.87969322  0.70406383     0.21900
C541        C  0.98570985  0.83612987  0.76339852    -0.52900
C542        C  0.98203361  0.87524861  0.74320613     0.11100
C543        C  0.99800767  0.80157390  0.69760227    -0.52500
C544        C  0.99414270  0.84119829  0.67770938     0.11600
H545        H  0.09025543  0.81873878  0.75191927     0.16100
H546        H  0.00462900  0.91177200  0.68779188     0.01900
H547        H  0.96874621  0.82863816  0.79192159     0.16400
H548        H  0.98742739  0.77132683  0.68352474     0.16200
C549        C  0.71925271  0.98208186  0.72123485     0.88000
C550        C  0.69773816  0.02645977  0.72169682    -0.52200
C551        C  0.65489955  0.02571494  0.71058023     0.11000
C552        C  0.63756252  0.97952954  0.69914710     0.21900
C553        C  0.69143169  0.95229714  0.74933378    -0.52900
C554        C  0.64873070  0.95072808  0.73750599     0.11100
C555        C  0.71062591  0.96523192  0.67706584    -0.52500
C556        C  0.66778335  0.96346153  0.66571843     0.11600
H557        H  0.71482295  0.05591224  0.73110981     0.16100
H558        H  0.60297007  0.97712325  0.68953943     0.01900
H559        H  0.70454986  0.93315945  0.77537899     0.16400
H560        H  0.73591509  0.95344940  0.65748069     0.16200
C561        C  0.82664040  0.98690802  0.78739765     0.88000
C562        C  0.85736669  0.02476060  0.77484048    -0.52200
C563        C  0.89935248  0.01841652  0.78804054     0.11000
C564        C  0.90650621  0.97539138  0.81221701     0.21900
C565        C  0.84711458  0.94551127  0.77077196    -0.52900
C566        C  0.88901178  0.94020596  0.78322143     0.11100
C567        C  0.83249717  0.98189604  0.83492887    -0.52500
C568        C  0.87444330  0.97530498  0.84770916     0.11600
H569        H  0.84700578  0.05308284  0.75664393     0.16100
H570        H  0.94052671  0.97010908  0.82307070     0.01900
H571        H  0.83024737  0.92255399  0.75071276     0.16400
H572        H  0.80559731  0.97973080  0.85603393     0.16200
In573      In  0.15118137  0.34301144  0.99800928     1.36900
C574        C  0.14441229  0.25190535  0.49686296     0.79100
O575        O  0.21440867  0.33789620  0.96651366    -0.59300
O576        O  0.21295863  0.34532466  0.53019607    -0.50200
C577        C  0.13748715  0.40301355  0.93944626     0.71800
O578        O  0.12276631  0.36466329  0.93634950    -0.45100
C579        C  0.09763739  0.35552912  0.55845609     0.76500
O580        O  0.13857956  0.28063543  0.96461768    -0.57000
O581        O  0.13641797  0.36875195  0.55753409    -0.47000
O582        O  0.15266954  0.27311450  0.52905449    -0.53400
C583        C  0.23440997  0.34285448  0.49755148     0.86700
O584        O  0.15428158  0.41209001  0.97437332    -0.55300
O585        O  0.08361329  0.33715865  0.52600318    -0.58600
In586      In  0.15124759  0.11821865  0.49777534     1.36900
C587        C  0.14766645  0.21023591  0.99641616     0.79100
O588        O  0.21541191  0.12293059  0.53034596    -0.59300
O589        O  0.21399301  0.11326571  0.96656138    -0.50200
C590        C  0.14071149  0.06130572  0.56008735     0.71800
O591        O  0.12667468  0.09967816  0.56101836    -0.45100
C592        C  0.09371084  0.11218551  0.93644969     0.76500
O593        O  0.13825931  0.18127128  0.52924158    -0.57000
O594        O  0.13239683  0.09983716  0.93439889    -0.47000
O595        O  0.15610179  0.18931794  0.96457463    -0.53400
C596        C  0.23692520  0.11617881  0.49861050     0.86700
O597        O  0.15500567  0.05032835  0.52549167    -0.55300
O598        O  0.08281479  0.12583257  0.97131752    -0.58600
In599      In  0.36904582  0.12593754  0.00035793     1.36900
C600        C  0.37119127  0.20915953  0.50259582     0.79100
O601        O  0.30469311  0.12818864  0.96749668    -0.59300
O602        O  0.30535328  0.10768811  0.53342720    -0.50200
C603        C  0.38418523  0.07177477  0.94006369     0.71800
O604        O  0.39549914  0.11137410  0.93821166    -0.45100
C605        C  0.42431833  0.11674721  0.56918605     0.76500
O606        O  0.37905986  0.19050865  0.96805714    -0.57000
O607        O  0.38571470  0.10288282  0.57121980    -0.47000
O608        O  0.36190776  0.18767289  0.53489151    -0.53400
C609        C  0.28406827  0.11656419  0.50039713     0.86700
O610        O  0.36848785  0.05892226  0.97410215    -0.55300
O611        O  0.43599996  0.12944589  0.53360193    -0.58600
In612      In  0.36955118  0.34529081  0.99773795     1.36900
C613        C  0.28142952  0.34360863  0.49800452     0.79100
O614        O  0.36266617  0.28087157  0.96799347    -0.59300
O615        O  0.37785394  0.27849814  0.53371766    -0.50200
C616        C  0.42441615  0.35676273  0.93735027     0.71800
O617        O  0.38630738  0.37110742  0.93476388    -0.45100
C618        C  0.37969559  0.39783778  0.55951638     0.76500
O619        O  0.30511050  0.35409436  0.96508583    -0.57000
O620        O  0.39329865  0.35933554  0.56240443    -0.47000
O621        O  0.30312022  0.33273772  0.52999993    -0.53400
C622        C  0.37110665  0.25634345  0.50161752     0.86700
O623        O  0.43615694  0.34148117  0.97249504    -0.55300
O624        O  0.36351587  0.40910149  0.52459991    -0.58600
C625        C  0.21850597  0.49216590  0.78255411     0.88000
C626        C  0.19370974  0.46030493  0.75406781    -0.52200
C627        C  0.15078819  0.45610421  0.76251746     0.11000
C628        C  0.13621182  0.48469611  0.79802230     0.21900
C629        C  0.19408536  0.53515328  0.77747941    -0.52900
C630        C  0.15084636  0.53159165  0.78558085     0.11100
C631        C  0.20886719  0.47578008  0.82707468    -0.52500
C632        C  0.16578644  0.47185819  0.83492530     0.11600
H633        H  0.20896895  0.44190541  0.73012591     0.16100
H634        H  0.10140016  0.48005434  0.80452050     0.01900
H635        H  0.20962486  0.56566540  0.76826449     0.16400
H636        H  0.23384374  0.46668254  0.84987726     0.16200
C637        C  0.32807459  0.49488511  0.72308999     0.88000
C638        C  0.32702346  0.47448282  0.67970657    -0.52200
C639        C  0.36687736  0.46472717  0.66559906     0.11000
C640        C  0.40406754  0.47536055  0.69568132     0.21900
C641        C  0.35316384  0.46176118  0.75097871    -0.52900
C642        C  0.39270179  0.45174740  0.73645889     0.11100
C643        C  0.35929702  0.53442783  0.71894563    -0.52500
C644        C  0.39931160  0.52368947  0.70464545     0.11600
H645        H  0.29737219  0.46820046  0.66185151     0.16100
H646        H  0.43638050  0.46707813  0.68386665     0.01900
H647        H  0.34100725  0.44611325  0.77892809     0.16400
H648        H  0.35043593  0.56732721  0.72646540     0.16200
C649        C  0.53181901  0.17569838  0.73182073     0.88000
C650        C  0.50857791  0.17696203  0.68872651    -0.52200
C651        C  0.49713816  0.13682747  0.67457840     0.11000
C652        C  0.50949175  0.09945849  0.70406195     0.21900
C653        C  0.50108818  0.14950750  0.76042322    -0.52900
C654        C  0.48884461  0.11008190  0.74527961     0.11100
C655        C  0.57050802  0.14508708  0.72661504    -0.52500
C656        C  0.55827456  0.10473321  0.71222227     0.11600
H657        H  0.50127819  0.20686619  0.67147068     0.16100
H658        H  0.50001221  0.06700969  0.69200427     0.01900
H659        H  0.48925496  0.16155502  0.78946807     0.16400
H660        H  0.60362936  0.15425901  0.73466054     0.16200
C661        C  0.51035266  0.29341285  0.77215641     0.88000
C662        C  0.48076496  0.32211965  0.74446831    -0.52200
C663        C  0.47490607  0.36258567  0.75918658     0.11000
C664        C  0.49992565  0.37153725  0.79979916     0.21900
C665        C  0.55326566  0.32010672  0.77584604    -0.52900
C666        C  0.54709084  0.36137411  0.79065099     0.11100
C667        C  0.49088741  0.29467759  0.81579330    -0.52500
C668        C  0.48596196  0.33568362  0.83001769     0.11600
H669        H  0.46487822  0.31098547  0.71605042     0.16100
H670        H  0.49518525  0.40482530  0.81160054     0.01900
H671        H  0.58473141  0.30786903  0.76800474     0.16400
H672        H  0.48162129  0.26572580  0.83361666     0.16200
C673        C  0.21770582  0.99533887  0.73149299     0.88000
C674        C  0.21101304  0.00169171  0.68413164    -0.52200
C675        C  0.16840367  0.00153346  0.67132328     0.11000
C676        C  0.13658404  0.99441697  0.70683348     0.21900
C677        C  0.19058712  0.03116097  0.74996358    -0.52900
C678        C  0.14845995  0.03126413  0.73698316     0.11100
C679        C  0.19364104  0.95269276  0.74282260    -0.52500
C680        C  0.15130499  0.95157857  0.72931759     0.11600
H681        H  0.23736751  0.00882062  0.66319746     0.16100
H682        H  0.10220904  0.99506484  0.69610596     0.01900
H683        H  0.20417031  0.05601923  0.77016085     0.16400
H684        H  0.20864228  0.92560192  0.75963310     0.16200
C685        C  0.33725472  0.97754020  0.77160084     0.88000
C686        C  0.33590051  0.99514626  0.81603927    -0.52200
C687        C  0.37573215  0.00519422  0.83261928     0.11000
C688        C  0.41309142  0.99711756  0.80375809     0.21900
C689        C  0.36239205  0.01219952  0.74643722    -0.52900
C690        C  0.40166026  0.02297046  0.76370983     0.11100
C691        C  0.36806085  0.93865105  0.77506262    -0.52500
C692        C  0.40808478  0.94919792  0.79175821     0.11600
H693        H  0.30609511  0.99994921  0.83247848     0.16100
H694        H  0.44543784  0.00533214  0.81751236     0.01900
H695        H  0.35000135  0.02723226  0.71774605     0.16400
H696        H  0.35887961  0.90625087  0.76512644     0.16200
C697        C  0.02646778  0.17847061  0.76172448     0.88000
C698        C  0.03712805  0.17616482  0.80859372    -0.52200
C699        C  0.03354539  0.13521660  0.82548837     0.11000
C700        C  0.01939253  0.10045893  0.79456633     0.21900
C701        C  0.05652530  0.14470751  0.74297930    -0.52900
C702        C  0.05236468  0.10384418  0.76011762     0.11100
C703        C  0.98047087  0.15824886  0.75704489    -0.52500
C704        C  0.97683385  0.11704565  0.77418863     0.11600
H705        H  0.04863313  0.20391847  0.82625208     0.16100
H706        H  0.01810791  0.06774273  0.80970809     0.01900
H707        H  0.07889561  0.15232555  0.71824507     0.16400
H708        H  0.95356173  0.17479165  0.74151197     0.16200
C709        C  0.01828951  0.30334293  0.73143291     0.88000
C710        C  0.03184230  0.30451818  0.68564504    -0.52200
C711        C  0.04181109  0.34521916  0.67080532     0.11000
C712        C  0.03712048  0.38113910  0.70243643     0.21900
C713        C  0.05543242  0.32631481  0.75545807    -0.52900
C714        C  0.06536013  0.36704673  0.74025835     0.11100
C715        C  0.98039419  0.33537555  0.73258974    -0.52500
C716        C  0.99028846  0.37626160  0.71713794     0.11600
H717        H  0.03371074  0.27578112  0.66675985     0.16100
H718        H  0.04506136  0.41418614  0.68988200     0.01900
H719        H  0.07172034  0.31198031  0.78264964     0.16400
H720        H  0.94892510  0.32598951  0.74426543     0.16200
C721        C  0.03345788  0.22371321  0.74262484    -0.14900
C722        C  0.00766581  0.25794255  0.74880250    -0.30100
H723        H  0.06178185  0.22881941  0.72365646     0.14100
H724        H  0.97855858  0.25311079  0.76669288     0.14700
C725        C  0.12081484  0.06865068  0.74615200    -0.14900
C726        C  0.07767651  0.06594367  0.74780055    -0.30100
H727        H  0.13687832  0.09922730  0.75392283     0.14100
H728        H  0.06119264  0.03474061  0.74452850     0.14700
C729        C  0.26437670  0.00018670  0.74647701    -0.14900
C730        C  0.29264367  0.96764722  0.75306654    -0.30100
H731        H  0.27544856  0.03305821  0.75339439     0.14100
H732        H  0.28367056  0.93443665  0.74551673     0.14700
C733        C  0.43063842  0.05539153  0.74413914    -0.14900
C734        C  0.45824737  0.08026883  0.76634583    -0.30100
H735        H  0.42814553  0.05973779  0.71056922     0.14100
H736        H  0.45769066  0.07960729  0.80008293     0.14700
C737        C  0.50910081  0.24744879  0.75598035    -0.14900
C738        C  0.54226611  0.22106612  0.74799825    -0.30100
H739        H  0.47647406  0.23441732  0.75109230     0.14100
H740        H  0.57557288  0.23147124  0.75348071     0.14700
C741        C  0.42161711  0.42079381  0.75842954    -0.14900
C742        C  0.44677480  0.39431457  0.73745545    -0.30100
H743        H  0.42031148  0.41798880  0.79210165     0.14100
H744        H  0.44448222  0.39367315  0.70373400     0.14700
C745        C  0.12127016  0.42573177  0.74028447    -0.14900
C746        C  0.09723939  0.39623921  0.76122935    -0.30100
H747        H  0.12062981  0.42654990  0.70652595     0.14100
H748        H  0.10145161  0.39299850  0.79478700     0.14700
C749        C  0.28237174  0.50544184  0.73652206    -0.14900
C750        C  0.26662629  0.49487451  0.77424678    -0.30100
H751        H  0.25992355  0.51752060  0.71254727     0.14100
H752        H  0.28850541  0.48511571  0.79943888     0.14700
C753        C  0.46809910  0.34520442  0.86962290    -0.11700
C754        C  0.45056371  0.35326703  0.90150056    -0.13300
C755        C  0.37371753  0.44467683  0.62636715    -0.11700
C756        C  0.37886366  0.42534510  0.59478066    -0.13300
C757        C  0.38553666  0.04440360  0.90459377    -0.11700
C758        C  0.38200374  0.02483595  0.87261100    -0.13300
C759        C  0.47327852  0.12932414  0.63627513    -0.11700
C760        C  0.45188227  0.12154678  0.60540676    -0.13300
C761        C  0.06598128  0.11559126  0.90015956    -0.11700
C762        C  0.04841051  0.12409161  0.86716216    -0.13300
C763        C  0.14501423  0.03411021  0.59711782    -0.11700
C764        C  0.15446665  0.01636266  0.63004047    -0.13300
C765        C  0.07298341  0.35727945  0.59558136    -0.11700
C766        C  0.05695176  0.35337363  0.62927427    -0.13300
C767        C  0.14017170  0.43233191  0.90414357    -0.11700
C768        C  0.14981308  0.45256978  0.87305132    -0.13300
C769        C  0.93695222  0.04723415  0.77930421    -0.14900
C770        C  0.93583469  0.09080646  0.77401133    -0.30100
H771        H  0.96778156  0.03086501  0.78007468     0.14100
H772        H  0.90505349  0.10743732  0.77165398     0.14700
C773        C  0.62913903  0.06612580  0.71299368    -0.14900
C774        C  0.58620996  0.06649693  0.70672627    -0.30100
H775        H  0.64603438  0.09585857  0.72171846     0.14100
H776        H  0.56942361  0.03683403  0.69812255     0.14700
C777        C  0.76663689  0.98380086  0.73383714    -0.14900
C778        C  0.77995923  0.99220753  0.77307196    -0.30100
H779        H  0.79035275  0.97602213  0.71084249     0.14100
H780        H  0.75591287  0.99872657  0.79614885     0.14700
C781        C  0.08883547  0.90398880  0.71097492    -0.14900
C782        C  0.12307901  0.91230297  0.73615606    -0.30100
H783        H  0.08237795  0.92589820  0.68473505     0.14100
H784        H  0.13042412  0.89039744  0.76225598     0.14700
C785        C  0.95571837  0.91078936  0.75795388    -0.14900
C786        C  0.91505456  0.90378482  0.76989298    -0.30100
H787        H  0.96897090  0.94369259  0.75607010     0.14100
H788        H  0.90003804  0.87173698  0.76729106     0.14700
C789        C  0.12210109  0.57000365  0.78155577    -0.14900
C790        C  0.08119322  0.56950710  0.79487873    -0.30100
H791        H  0.13537411  0.59929116  0.76709762     0.14100
H792        H  0.06820466  0.54053593  0.80994493     0.14700
C793        C  0.01660712  0.76109344  0.76700215    -0.14900
C794        C  0.03287228  0.72350715  0.75353822    -0.30100
H795        H  0.99793457  0.75996802  0.79497787     0.14100
H796        H  0.04930685  0.72413312  0.72406876     0.14700
C797        C  0.44867521  0.88216723  0.77684817    -0.14900
C798        C  0.44505322  0.91934153  0.79740967    -0.30100
H799        H  0.42238159  0.87093995  0.75666344     0.14100
H800        H  0.47114929  0.93003929  0.81800134     0.14700
C801        C  0.59154961  0.89441568  0.73657163    -0.14900
C802        C  0.61714657  0.92162590  0.75842946    -0.30100
H803        H  0.59447975  0.89311324  0.70303800     0.14100
H804        H  0.61797677  0.91940583  0.79218609     0.14700
C805        C  0.44342090  0.59101450  0.71729971    -0.14900
C806        C  0.43686257  0.55327298  0.69800068    -0.30100
H807        H  0.41843502  0.60379945  0.73661183     0.14100
H808        H  0.46165987  0.54128214  0.67812010     0.14700
C809        C  0.53588707  0.72696304  0.72585476    -0.14900
C810        C  0.52909297  0.74276374  0.76374708    -0.30100
H811        H  0.54365276  0.74897250  0.70021794     0.14100
H812        H  0.51977865  0.72024178  0.78858898     0.14700
C813        C  0.91895682  0.41275707  0.72532744    -0.14900
C814        C  0.96040059  0.41373806  0.71349096    -0.30100
H815        H  0.90524626  0.38298479  0.73842847     0.14100
H816        H  0.97394564  0.44319319  0.69986380     0.14700
C817        C  0.91873967  0.55855023  0.76143200    -0.14900
C818        C  0.94625641  0.58429363  0.74015831    -0.30100
H819        H  0.91670728  0.56133155  0.79492160     0.14100
H820        H  0.94508192  0.58470041  0.70637457     0.14700
C821        C  0.58014334  0.39567008  0.79879079    -0.14900
C822        C  0.61769153  0.40013332  0.77924745    -0.30100
H823        H  0.57084533  0.42052923  0.82007595     0.14100
H824        H  0.62792436  0.37505839  0.75850308     0.14700
C825        C  0.61051600  0.54578645  0.73991928    -0.14900
C826        C  0.58812231  0.57530430  0.76035038    -0.30100
H827        H  0.60931136  0.54585282  0.70614917     0.14100
H828        H  0.59327224  0.57847093  0.79368520     0.14700
C829        C  0.75887099  0.48389193  0.77141031    -0.14900
C830        C  0.77383778  0.48491485  0.73244264    -0.30100
H831        H  0.78185644  0.48541593  0.79745322     0.14100
H832        H  0.75079488  0.48485667  0.70638887     0.14700
C833        C  0.55824739  0.60728399  0.62640265    -0.11700
C834        C  0.57469688  0.59850415  0.59404012    -0.13300
C835        C  0.64366492  0.51719966  0.87159398    -0.11700
C836        C  0.63684870  0.53792209  0.90218612    -0.13300
C837        C  0.64393837  0.91992715  0.59836400    -0.11700
C838        C  0.65252197  0.94152978  0.62856620    -0.13300
C839        C  0.56494996  0.85585942  0.86858982    -0.11700
C840        C  0.58273106  0.86314087  0.90154906    -0.13300
C841        C  0.89272275  0.93605509  0.91961142    -0.11700
C842        C  0.88570984  0.95756824  0.88839866    -0.13300
C843        C  0.97304823  0.84755966  0.63745253    -0.11700
C844        C  0.95292819  0.85332872  0.60515883    -0.13300
C845        C  0.95773766  0.61878934  0.90450627    -0.11700
C846        C  0.97615130  0.62642114  0.87236029    -0.13300
C847        C  0.88727074  0.52628688  0.62999063    -0.11700
C848        C  0.89463975  0.54553349  0.59776408    -0.13300
loop_ 
_geom_bond_atom_site_label_1 
_geom_bond_atom_site_label_2 
_geom_bond_distance 
_geom_bond_site_symmetry_2 
_ccdc_geom_bond_type 
In1          O12   2.254       .  S
In1           O6   2.258       .  S
In1           O8   2.251       .  S
In1          O13   2.235       .  S
In1         O427   2.253   1_554  S
In1         O428   2.239   1_554  S
In1         O433   2.251   1_554  S
In1         O434   2.235   1_554  S
C2           O10   1.255       .  A
C2          O432   1.257       .  A
C2          C439   1.457       .  S
O3         In425   2.241       .  S
O3           C11   1.260       .  A
O4         In425   2.251       .  S
O4           C11   1.261       .  A
C5           O12   1.260       .  A
C5            O6   1.262       .  A
C5          C424   1.445       .  S
C7           O13   1.257   1_556  A
C7          O433   1.262       .  A
C7          C465   1.458       .  S
O8          C426   1.264       .  A
O9         In425   2.239       .  S
O9          C431   1.260       .  A
O10        In425   2.252       .  S
C11         C421   1.437       .  S
In14         O25   2.260       .  S
In14         O19   2.239       .  S
In14         O21   2.250       .  S
In14         O26   2.241       .  S
In14        O440   2.243       .  S
In14        O441   2.256       .  S
In14        O446   2.243       .  S
In14        O447   2.228       .  S
C15          O23   1.257       .  A
C15         O445   1.264   1_554  A
C15         C426   1.459       .  S
O16        In438   2.240       .  S
O16          C24   1.262       .  A
O17        In438   2.238       .  S
O17          C24   1.263       .  A
C18          O25   1.263       .  A
C18          O19   1.260       .  A
C18         C417   1.440       .  S
C20          O26   1.259       .  A
C20         O446   1.264       .  A
C20         C452   1.459       .  S
O21         C439   1.263       .  A
O22        In438   2.253       .  S
O22         C444   1.264       .  A
O23        In438   2.233       .  S
C24         C420   1.436       .  S
In27         O38   2.253       .  S
In27         O32   2.243       .  S
In27         O34   2.254       .  S
In27         O39   2.243       .  S
In27        O453   2.246       .  S
In27        O454   2.259       .  S
In27        O459   2.266       .  S
In27        O460   2.233       .  S
C28          O36   1.257       .  A
C28         O458   1.262   1_554  A
C28         C444   1.459       .  S
O29        In451   2.246       .  S
O29          C37   1.262       .  A
O30        In451   2.242       .  S
O30          C37   1.261       .  A
C31          O38   1.263       .  A
C31          O32   1.262       .  A
C31         C416   1.441       .  S
C33          O39   1.256       .  A
C33         O459   1.263       .  A
C33         C470   1.466       .  S
O34         C452   1.262       .  A
O35        In451   2.242       .  S
O35         C457   1.262   1_554  A
O36        In451   2.244       .  S
C37         C413   1.438       .  S
In40         O51   2.239   1_556  S
In40         O45   2.236   1_556  S
In40         O47   2.244   1_556  S
In40         O52   2.226   1_556  S
In40        O466   2.241       .  S
In40        O467   2.249       .  S
In40        O472   2.256       .  S
In40        O473   2.242       .  S
C41          O49   1.257       .  A
C41         O471   1.263       .  A
C41         C431   1.457       .  S
O42        In464   2.246       .  S
O42          C50   1.258       .  A
O43        In464   2.262       .  S
O43          C50   1.263       .  A
C44          O51   1.262       .  A
C44          O45   1.263       .  A
C44         C410   1.435       .  S
C46          O52   1.254   1_556  A
C46         O472   1.264       .  A
C46         C457   1.456       .  S
O47         C465   1.261   1_554  A
O48        In464   2.253       .  S
O48         C470   1.265       .  A
O49        In464   2.224       .  S
C50         C412   1.442       .  S
C53          C54   1.530       .  S
C53          C59   1.542       .  S
C53          C57   1.541       .  S
C53         C405   1.519       .  S
C54          H61   1.086       .  S
C54          C55   1.367       .  D
C55          C56   1.555       .  S
C55         C398   1.491       .  S
C56          C60   1.533       .  S
C56          C58   1.538       .  S
C56          H62   1.109       .  S
C57          H63   1.086       .  S
C57          C58   1.367       .  D
C58         C401   1.479       .  S
C59          H64   1.087       .  S
C59          C60   1.364       .  D
C60         C411   1.449       .  S
C65          C66   1.540       .  S
C65          C71   1.540       .  S
C65          C69   1.543       .  S
C65         C406   1.527       .  S
C66          H73   1.086       .  S
C66          C67   1.372       .  D
C67          C68   1.552       .  S
C67         C389   1.497       .  S
C68          C72   1.535       .  S
C68          C70   1.533       .  S
C68          H74   1.108       .  S
C69          H75   1.085       .  S
C69          C70   1.361       .  D
C70         C393   1.474       .  S
C71          H76   1.087       .  S
C71          C72   1.364       .  D
C72         C423   1.452       .  S
C77          C78   1.543       .  S
C77          C83   1.543       .  S
C77          C81   1.550       .  S
C77         C385   1.529       .  S
C78          H85   1.085       .  S
C78          C79   1.373       .  D
C79          C80   1.535       .  S
C79         C381   1.482       .  S
C80          C84   1.524       .  S
C80          C82   1.531       .  S
C80          H86   1.111       .  S
C81          H87   1.086       .  S
C81          C82   1.370       .  D
C82         C402   1.485       .  S
C83          H88   1.087       .  S
C83          C84   1.361       .  D
C84         C409   1.443       .  S
C89          C90   1.542       .  S
C89          C95   1.541       .  S
C89          C93   1.543       .  S
C89         C386   1.532       .  S
C90          H97   1.086       .  S
C90          C91   1.375       .  D
C91          C92   1.551       .  S
C91         C373   1.500       .  S
C92          C96   1.531       .  S
C92          C94   1.537       .  S
C92          H98   1.106       .  S
C93          H99   1.086       .  S
C93          C94   1.364       .  D
C94         C377   1.480       .  S
C95         H100   1.087       .  S
C95          C96   1.364       .  D
C96         C415   1.449       .  S
C101        C102   1.541       .  S
C101        C107   1.543   1_455  S
C101        C105   1.539   1_455  S
C101        C370   1.517       .  S
C102        H109   1.085       .  S
C102        C103   1.372       .  D
C103        C104   1.540   1_455  S
C103        C366   1.482       .  S
C104        C108   1.527       .  S
C104        C106   1.534       .  S
C104        H110   1.112       .  S
C105        H111   1.086       .  S
C105        C106   1.361       .  D
C106        C394   1.475       .  S
C107        H112   1.086       .  S
C107        C108   1.365       .  D
C108        C422   1.444       .  S
C113        C114   1.539       .  S
C113        C119   1.546       .  S
C113        C117   1.545   1_455  S
C113        C369   1.527       .  S
C114        H121   1.086       .  S
C114        C115   1.366       .  D
C115        C116   1.547       .  S
C115        C357   1.489       .  S
C116        C120   1.529       .  S
C116        C118   1.529   1_455  S
C116        H122   1.109       .  S
C117        H123   1.086       .  S
C117        C118   1.369       .  D
C118        C361   1.483       .  S
C119        H124   1.082   1_455  S
C119        C120   1.362       .  D
C120        C419   1.443   1_455  S
C125        C126   1.544   1_565  S
C125        C131   1.543       .  S
C125        C129   1.538       .  S
C125        C353   1.521       .  S
C126        H133   1.085       .  S
C126        C127   1.374       .  D
C127        C128   1.541   1_545  S
C127        C349   1.484       .  S
C128        C132   1.527       .  S
C128        C130   1.537       .  S
C128        H134   1.112       .  S
C129        H135   1.086       .  S
C129        C130   1.363       .  D
C130        C378   1.478       .  S
C131        H136   1.087       .  S
C131        C132   1.362       .  D
C132        C414   1.445       .  S
C137        C138   1.537   1_565  S
C137        C143   1.535       .  S
C137        C141   1.539       .  S
C137        C354   1.518       .  S
C138        H145   1.086       .  S
C138        C139   1.369       .  D
C139        C140   1.553   1_545  S
C139        C345   1.494       .  S
C140        C144   1.537       .  S
C140        C142   1.542       .  S
C140        H146   1.107       .  S
C141        H147   1.087       .  S
C141        C142   1.364       .  D
C142        C362   1.487       .  S
C143        H148   1.086       .  S
C143        C144   1.365       .  D
C144        C418   1.446       .  S
In149       O151   2.236       .  S
In149       O160   2.238       .  S
In149       O154   2.251       .  S
In149       O156   2.255       .  S
In149       O576   2.237       .  S
In149       O581   2.231       .  S
In149       O582   2.237       .  S
In149       O585   2.247       .  S
C150        O158   1.256   1_556  A
C150        O580   1.264       .  A
C150        C587   1.451       .  S
O151        C583   1.255       .  A
O152       In573   2.248   1_554  S
O152        C159   1.264   1_554  A
C153        O160   1.260       .  A
C153        O154   1.264       .  A
C153        C343   1.439       .  S
C155        O157   1.263       .  A
C155        O161   1.261       .  A
C155        C341   1.439       .  S
O156        C574   1.263       .  A
O157       In573   2.240   1_554  S
O158       In573   2.218   1_554  S
C159        O575   1.258       .  A
C159        C189   1.458       .  S
O161       In573   2.250   1_554  S
In162       O164   2.232   1_556  S
In162       O173   2.235   1_556  S
In162       O167   2.234   1_556  S
In162       O169   2.234   1_556  S
In162       O589   2.238       .  S
In162       O594   2.231       .  S
In162       O595   2.230       .  S
In162       O598   2.242       .  S
C163        O171   1.256       .  A
C163        O593   1.262       .  A
C163        C574   1.460       .  S
O164        C172   1.257   1_554  A
O165       In586   2.258       .  S
O165        C596   1.262       .  A
C166        O173   1.261       .  A
C166        O167   1.263       .  A
C166        C339   1.433       .  S
C168        O170   1.262       .  A
C168        O174   1.262       .  A
C168        C337   1.440       .  S
O169        C587   1.263   1_554  A
O170       In586   2.241       .  S
O171       In586   2.242       .  S
C172        O589   1.263       .  A
C172        C185   1.455       .  S
O174       In586   2.249       .  S
In175       O177   2.240       .  S
In175       O186   2.242       .  S
In175       O180   2.233       .  S
In175       O182   2.239       .  S
In175       O602   2.234       .  S
In175       O607   2.242       .  S
In175       O608   2.221       .  S
In175       O611   2.235       .  S
C176        O184   1.257       .  A
C176        O606   1.262   1_554  A
C176        C198   1.457       .  S
O177        C609   1.257       .  A
O178       In599   2.251       .  S
O178        C185   1.263   1_554  A
C179        O186   1.262       .  A
C179        O180   1.262       .  A
C179        C333   1.434       .  S
C181        O183   1.263       .  A
C181        O187   1.261       .  A
C181        C336   1.435       .  S
O182        C600   1.263       .  A
O183       In599   2.243       .  S
O184       In599   2.240       .  S
C185        O601   1.255       .  A
O187       In599   2.234       .  S
In188       O190   2.227       .  S
In188       O199   2.243       .  S
In188       O193   2.231       .  S
In188       O195   2.243       .  S
In188       O615   2.233       .  S
In188       O620   2.229       .  S
In188       O621   2.221       .  S
In188       O624   2.237       .  S
C189        O197   1.257   1_556  A
C189        O619   1.262       .  A
O190        C622   1.256       .  A
O191       In612   2.253   1_554  S
O191        C198   1.265       .  A
C192        O199   1.262       .  A
C192        O193   1.262       .  A
C192        C330   1.433       .  S
C194        O196   1.264       .  A
C194        O200   1.261       .  A
C194        C332   1.436       .  S
O195        C613   1.263       .  A
O196       In612   2.239   1_554  S
O197       In612   2.236   1_554  S
C198        O614   1.256   1_554  A
O200       In612   2.238   1_554  S
C201        C202   1.543       .  S
C201        C207   1.540       .  S
C201        C205   1.544       .  S
C201        C326   1.524       .  S
C202        H209   1.086       .  S
C202        C203   1.365       .  D
C203        C204   1.526       .  S
C203        C321   1.471       .  S
C204        C208   1.530       .  S
C204        C206   1.542       .  S
C204        H210   1.108       .  S
C205        H211   1.086       .  S
C205        C206   1.371       .  D
C206        C365   1.491       .  S
C207        H212   1.087       .  S
C207        C208   1.365       .  D
C208        C344   1.446       .  S
C213        C214   1.540       .  S
C213        C219   1.539       .  S
C213        C217   1.548       .  S
C213        C325   1.521       .  S
C214        H221   1.086       .  S
C214        C215   1.363       .  D
C215        C216   1.527       .  S
C215        C331   1.444       .  S
C216        C220   1.545       .  S
C216        C218   1.529       .  S
C216        H222   1.108       .  S
C217        H223   1.086       .  S
C217        C218   1.370       .  D
C218        C317   1.478       .  S
C219        H224   1.086       .  S
C219        C220   1.367       .  D
C220        C382   1.490       .  S
C225        C226   1.537       .  S
C225        C231   1.545       .  S
C225        C229   1.548       .  S
C225        C314   1.526       .  S
C226        H233   1.087       .  S
C226        C227   1.361       .  D
C227        C228   1.529       .  S
C227        C335   1.443       .  S
C228        C232   1.545       .  S
C228        C230   1.528       .  S
C228        H234   1.106       .  S
C229        H235   1.086       .  S
C229        C230   1.368       .  D
C230        C310   1.480       .  S
C231        H236   1.086       .  S
C231        C232   1.373       .  D
C232        C350   1.496       .  S
C237        C238   1.546       .  S
C237        C243   1.539       .  S
C237        C241   1.544       .  S
C237        C313   1.526       .  S
C238        H245   1.086       .  S
C238        C239   1.367       .  D
C239        C240   1.537       .  S
C239        C318   1.485       .  S
C240        C244   1.528       .  S
C240        C242   1.533       .  S
C240        H246   1.111       .  S
C241        H247   1.085       .  S
C241        C242   1.375       .  D
C242        C397   1.488       .  S
C243        H248   1.086       .  S
C243        C244   1.363       .  D
C244        C329   1.441       .  S
C249        C250   1.542       .  S
C249        C255   1.546       .  S
C249        C253   1.548   1_565  S
C249        C305   1.525       .  S
C250        H257   1.086   1_565  S
C250        C251   1.362   1_565  D
C251        C252   1.523   1_545  S
C251        C340   1.441       .  S
C252        C256   1.531       .  S
C252        C254   1.531   1_565  S
C252        H258   1.111   1_565  S
C253        H259   1.086       .  S
C253        C254   1.366       .  D
C254        C301   1.481       .  S
C255        H260   1.085       .  S
C255        C256   1.374       .  D
C256        C358   1.479       .  S
C261        C262   1.538       .  S
C261        C267   1.545       .  S
C261        C265   1.542   1_565  S
C261        C306   1.526       .  S
C262        H269   1.087       .  S
C262        C263   1.362   1_565  D
C263        C264   1.531       .  S
C263        C334   1.442       .  S
C264        C268   1.542   1_545  S
C264        C266   1.542       .  S
C264        H270   1.110       .  S
C265        H271   1.086       .  S
C265        C266   1.364       .  D
C266        C309   1.489       .  S
C267        H272   1.084       .  S
C267        C268   1.376       .  D
C268        C374   1.493       .  S
C273        C274   1.547       .  S
C273        C279   1.543   1_455  S
C273        C277   1.537       .  S
C273        C297   1.530   1_455  S
C274        H281   1.086       .  S
C274        C275   1.367       .  D
C275        C276   1.528       .  S
C275        C338   1.447       .  S
C276        C280   1.541   1_455  S
C276        C278   1.535       .  S
C276        H282   1.112       .  S
C277        H283   1.087       .  S
C277        C278   1.359       .  D
C278        C302   1.475       .  S
C279        H284   1.084       .  S
C279        C280   1.378       .  D
C280        C346   1.492       .  S
C285        C286   1.543       .  S
C285        C291   1.549   1_455  S
C285        C289   1.539       .  S
C285        C298   1.525       .  S
C286        H293   1.086       .  S
C286        C287   1.370       .  D
C287        C288   1.530       .  S
C287        C342   1.446       .  S
C288        C292   1.537   1_455  S
C288        C290   1.532       .  S
C288        H294   1.111       .  S
C289        H295   1.087       .  S
C289        C290   1.354       .  D
C290        C322   1.477       .  S
C291        H296   1.085       .  S
C291        C292   1.378       .  D
C292        C390   1.487       .  S
C297        H299   1.086       .  S
C297        C298   1.348   1_655  D
C298        H300   1.088       .  S
C301        H303   1.087       .  S
C301        C302   1.342       .  D
C302        H304   1.087       .  S
C305        H307   1.087       .  S
C305        C306   1.348       .  D
C306        H308   1.087       .  S
C309        H311   1.087       .  S
C309        C310   1.341       .  D
C310        H312   1.085       .  S
C313        H315   1.087       .  S
C313        C314   1.347       .  D
C314        H316   1.087       .  S
C317        H319   1.086       .  S
C317        C318   1.342       .  D
C318        H320   1.086       .  S
C321        H323   1.086       .  S
C321        C322   1.335       .  D
C322        H324   1.088       .  S
C325        H327   1.086       .  S
C325        C326   1.349       .  D
C326        H328   1.086       .  S
C329        C330   1.205       .  T
C331        C332   1.206       .  T
C333        C334   1.205       .  T
C335        C336   1.206       .  T
C337        C338   1.209       .  T
C339        C340   1.205       .  T
C341        C342   1.208       .  T
C343        C344   1.208       .  T
C345        H347   1.084       .  S
C345        C346   1.346       .  D
C346        H348   1.082       .  S
C349        H351   1.080       .  S
C349        C350   1.348       .  D
C350        H352   1.085       .  S
C353        H355   1.086   1_565  S
C353        C354   1.350       .  D
C354        H356   1.088       .  S
C357        H359   1.085       .  S
C357        C358   1.340       .  D
C358        H360   1.083       .  S
C361        H363   1.085       .  S
C361        C362   1.342       .  D
C362        H364   1.087       .  S
C365        H367   1.086       .  S
C365        C366   1.346       .  D
C366        H368   1.082       .  S
C369        H371   1.086       .  S
C369        C370   1.349       .  D
C370        H372   1.080   1_455  S
C373        H375   1.085       .  S
C373        C374   1.351       .  D
C374        H376   1.081       .  S
C377        H379   1.087       .  S
C377        C378   1.342       .  D
C378        H380   1.086       .  S
C381        H383   1.081       .  S
C381        C382   1.344       .  D
C382        H384   1.085       .  S
C385        H387   1.087       .  S
C385        C386   1.350       .  D
C386        H388   1.087       .  S
C389        H391   1.086       .  S
C389        C390   1.346       .  D
C390        H392   1.083       .  S
C393        H395   1.087       .  S
C393        C394   1.340       .  D
C394        H396   1.087       .  S
C397        H399   1.083       .  S
C397        C398   1.343       .  D
C398        H400   1.086       .  S
C401        H403   1.086       .  S
C401        C402   1.347       .  D
C402        H404   1.087       .  S
C405        H407   1.085       .  S
C405        C406   1.350       .  D
C406        H408   1.087       .  S
C409        C410   1.206       .  T
C411        C412   1.210       .  T
C413        C414   1.207       .  T
C415        C416   1.210       .  T
C417        C418   1.208       .  T
C419        C420   1.206       .  T
C421        C422   1.207       .  T
C423        C424   1.212       .  T
In425       O436   2.243       .  S
In425       O430   2.247       .  S
In425       O432   2.242       .  S
In425       O437   2.249       .  S
C426        O434   1.256   1_554  A
O427        C435   1.263       .  A
O428        C435   1.262       .  A
C429        O436   1.261       .  A
C429        O430   1.262       .  A
C429        C848   1.437       .  S
C431        O437   1.256       .  A
C435        C845   1.441       .  S
In438       O449   2.241   1_554  S
In438       O443   2.241   1_554  S
In438       O445   2.248   1_554  S
In438       O450   2.230   1_554  S
C439        O447   1.257       .  A
O440        C448   1.258       .  A
O441        C448   1.262       .  A
C442        O449   1.261       .  A
C442        O443   1.264       .  A
C442        C841   1.437       .  S
C444        O450   1.257   1_554  A
C448        C844   1.439       .  S
In451       O462   2.242   1_554  S
In451       O456   2.242   1_554  S
In451       O458   2.245   1_554  S
In451       O463   2.239   1_554  S
C452        O460   1.257       .  A
O453        C461   1.261       .  A
O454        C461   1.264       .  A
C455        O462   1.261       .  A
C455        O456   1.262       .  A
C455        C840   1.436       .  S
C457        O463   1.256       .  A
C461        C837   1.444       .  S
In464       O475   2.252       .  S
In464       O469   2.237       .  S
In464       O471   2.249       .  S
In464       O476   2.248       .  S
C465        O473   1.257       .  A
O466        C474   1.261       .  A
O467        C474   1.264       .  A
C468        O475   1.263       .  A
C468        O469   1.261       .  A
C468        C834   1.437       .  S
C470        O476   1.259       .  A
C474        C836   1.440       .  S
C477        C478   1.532       .  S
C477        C483   1.540       .  S
C477        C481   1.541       .  S
C477        C829   1.516       .  S
C478        H485   1.086       .  S
C478        C479   1.365       .  D
C479        C480   1.556       .  S
C479        C822   1.489       .  S
C480        C484   1.533       .  S
C480        C482   1.537       .  S
C480        H486   1.109       .  S
C481        H487   1.086       .  S
C481        C482   1.363       .  D
C482        C825   1.478       .  S
C483        H488   1.087       .  S
C483        C484   1.364       .  D
C484        C835   1.447       .  S
C489        C490   1.532       .  S
C489        C495   1.540       .  S
C489        C493   1.541       .  S
C489        C830   1.516       .  S
C490        H497   1.086       .  S
C490        C491   1.368       .  D
C491        C492   1.552       .  S
C491        C813   1.489       .  S
C492        C496   1.529       .  S
C492        C494   1.537       .  S
C492        H498   1.106       .  S
C493        H499   1.086       .  S
C493        C494   1.364       .  D
C494        C817   1.478       .  S
C495        H500   1.087       .  S
C495        C496   1.364       .  D
C496        C847   1.445       .  S
C501        C502   1.533       .  S
C501        C507   1.539       .  S
C501        C505   1.537       .  S
C501        C809   1.511       .  S
C502        H509   1.086       .  S
C502        C503   1.365       .  D
C503        C504   1.553       .  S
C503        C805   1.486       .  S
C504        C508   1.531       .  S
C504        C506   1.541       .  S
C504        H510   1.108       .  S
C505        H511   1.086       .  S
C505        C506   1.364       .  D
C506        C826   1.480       .  S
C507        H512   1.087       .  S
C507        C508   1.363       .  D
C508        C833   1.445       .  S
C513        C514   1.531       .  S
C513        C519   1.539       .  S
C513        C517   1.543       .  S
C513        C810   1.515       .  S
C514        H521   1.087       .  S
C514        C515   1.365       .  D
C515        C516   1.548       .  S
C515        C797   1.481       .  S
C516        C520   1.530       .  S
C516        C518   1.537       .  S
C516        H522   1.108       .  S
C517        H523   1.085       .  S
C517        C518   1.364       .  D
C518        C801   1.479       .  S
C519        H524   1.087       .  S
C519        C520   1.364       .  D
C520        C839   1.443       .  S
C525        C526   1.540       .  S
C525        C531   1.555       .  S
C525        C529   1.541   1_455  S
C525        C794   1.538       .  S
C526        H533   1.084       .  S
C526        C527   1.375       .  D
C527        C528   1.537       .  S
C527        C790   1.485       .  S
C528        C532   1.525   1_455  S
C528        C530   1.534   1_455  S
C528        H534   1.112   1_455  S
C529        H535   1.086       .  S
C529        C530   1.365       .  D
C530        C818   1.480       .  S
C531        H536   1.083       .  S
C531        C532   1.366   1_455  D
C532        C846   1.449       .  S
C537        C538   1.555       .  S
C537        C543   1.545   1_455  S
C537        C541   1.538   1_455  S
C537        C793   1.530       .  S
C538        H545   1.085       .  S
C538        C539   1.381       .  D
C539        C540   1.529       .  S
C539        C781   1.488       .  S
C540        C544   1.526   1_455  S
C540        C542   1.522   1_455  S
C540        H546   1.112       .  S
C541        H547   1.087       .  S
C541        C542   1.358       .  D
C542        C785   1.464       .  S
C543        H548   1.086       .  S
C543        C544   1.368       .  D
C544        C843   1.446       .  S
C549        C550   1.525   1_565  S
C549        C555   1.540       .  S
C549        C553   1.541       .  S
C549        C777   1.510       .  S
C550        H557   1.087       .  S
C550        C551   1.362       .  D
C551        C552   1.559   1_545  S
C551        C773   1.488       .  S
C552        C556   1.536       .  S
C552        C554   1.538       .  S
C552        H558   1.107       .  S
C553        H559   1.086       .  S
C553        C554   1.364       .  D
C554        C802   1.479       .  S
C555        H560   1.086       .  S
C555        C556   1.365       .  D
C556        C838   1.451       .  S
C561        C562   1.544   1_565  S
C561        C567   1.540       .  S
C561        C565   1.540       .  S
C561        C778   1.513       .  S
C562        H569   1.085       .  S
C562        C563   1.370       .  D
C563        C564   1.535   1_545  S
C563        C769   1.480       .  S
C564        C568   1.530       .  S
C564        C566   1.529       .  S
C564        H570   1.112       .  S
C565        H571   1.086       .  S
C565        C566   1.356       .  D
C566        C786   1.465       .  S
C567        H572   1.086       .  S
C567        C568   1.366       .  D
C568        C842   1.443       .  S
In573       O575   2.231       .  S
In573       O584   2.240       .  S
In573       O578   2.241       .  S
In573       O580   2.243       .  S
C574        O582   1.255       .  A
O576        C583   1.260       .  A
C577        O584   1.262       .  A
C577        O578   1.263       .  A
C577        C767   1.437       .  S
C579        O581   1.261       .  A
C579        O585   1.263       .  A
C579        C765   1.435       .  S
C583        C613   1.452       .  S
In586       O588   2.224       .  S
In586       O597   2.254       .  S
In586       O591   2.248       .  S
In586       O593   2.252       .  S
C587        O595   1.256       .  A
O588        C596   1.255       .  A
C590        O597   1.262       .  A
C590        O591   1.263       .  A
C590        C763   1.445       .  S
C592        O594   1.262       .  A
C592        O598   1.262       .  A
C592        C761   1.434       .  S
C596        C609   1.456       .  S
In599       O601   2.230   1_554  S
In599       O610   2.243   1_554  S
In599       O604   2.236   1_554  S
In599       O606   2.240   1_554  S
C600        O608   1.256       .  A
C600        C622   1.450       .  S
O602        C609   1.263       .  A
C603        O610   1.262       .  A
C603        O604   1.262       .  A
C603        C757   1.435       .  S
C605        O607   1.264       .  A
C605        O611   1.261       .  A
C605        C760   1.436       .  S
In612       O614   2.224       .  S
In612       O623   2.236       .  S
In612       O617   2.230       .  S
In612       O619   2.244       .  S
C613        O621   1.256       .  A
O615        C622   1.262       .  A
C616        O623   1.262       .  A
C616        O617   1.262       .  A
C616        C754   1.431       .  S
C618        O620   1.261       .  A
C618        O624   1.262       .  A
C618        C756   1.431       .  S
C625        C626   1.540       .  S
C625        C631   1.543       .  S
C625        C629   1.533       .  S
C625        C750   1.517       .  S
C626        H633   1.086       .  S
C626        C627   1.364       .  D
C627        C628   1.537       .  S
C627        C745   1.480       .  S
C628        C632   1.528       .  S
C628        C630   1.551       .  S
C628        H634   1.107       .  S
C629        H635   1.086       .  S
C629        C630   1.369       .  D
C630        C789   1.488       .  S
C631        H636   1.087       .  S
C631        C632   1.364       .  D
C632        C768   1.446       .  S
C637        C638   1.543       .  S
C637        C643   1.547       .  S
C637        C641   1.545       .  S
C637        C749   1.527       .  S
C638        H645   1.087       .  S
C638        C639   1.362       .  D
C639        C640   1.521       .  S
C639        C755   1.439       .  S
C640        C644   1.529       .  S
C640        C642   1.531       .  S
C640        H646   1.111       .  S
C641        H647   1.083       .  S
C641        C642   1.360       .  D
C642        C741   1.471       .  S
C643        H648   1.085       .  S
C643        C644   1.376       .  D
C644        C806   1.481       .  S
C649        C650   1.546       .  S
C649        C655   1.545       .  S
C649        C653   1.544       .  S
C649        C738   1.527       .  S
C650        H657   1.086       .  S
C650        C651   1.363       .  D
C651        C652   1.520       .  S
C651        C759   1.442       .  S
C652        C656   1.530       .  S
C652        C654   1.530       .  S
C652        H658   1.111       .  S
C653        H659   1.086       .  S
C653        C654   1.361       .  D
C654        C734   1.474       .  S
C655        H660   1.084       .  S
C655        C656   1.378       .  D
C656        C774   1.483       .  S
C661        C662   1.534       .  S
C661        C667   1.543       .  S
C661        C665   1.553       .  S
C661        C737   1.516       .  S
C662        H669   1.087       .  S
C662        C663   1.356       .  D
C663        C664   1.530       .  S
C663        C742   1.469       .  S
C664        C668   1.518       .  S
C664        C666   1.531       .  S
C664        H670   1.112       .  S
C665        H671   1.084       .  S
C665        C666   1.382       .  D
C666        C821   1.481       .  S
C667        H672   1.087       .  S
C667        C668   1.362       .  D
C668        C753   1.439       .  S
C673        C674   1.542   1_565  S
C673        C679   1.539       .  S
C673        C677   1.531   1_565  S
C673        C729   1.515   1_565  S
C674        H681   1.086       .  S
C674        C675   1.369       .  D
C675        C676   1.536   1_545  S
C675        C764   1.452       .  S
C676        C680   1.556       .  S
C676        C678   1.542   1_565  S
C676        H682   1.109       .  S
C677        H683   1.087       .  S
C677        C678   1.357       .  D
C678        C725   1.480       .  S
C679        H684   1.085       .  S
C679        C680   1.368       .  D
C680        C782   1.495       .  S
C685        C686   1.542       .  S
C685        C691   1.538       .  S
C685        C689   1.537   1_565  S
C685        C730   1.518       .  S
C686        H693   1.086       .  S
C686        C687   1.363   1_565  D
C687        C688   1.525   1_545  S
C687        C758   1.442       .  S
C688        C692   1.536       .  S
C688        C690   1.535   1_565  S
C688        H694   1.111   1_565  S
C689        H695   1.087       .  S
C689        C690   1.362       .  D
C690        C733   1.472       .  S
C691        H696   1.085       .  S
C691        C692   1.374       .  D
C692        C798   1.479       .  S
C697        C698   1.536       .  S
C697        C703   1.548   1_455  S
C697        C701   1.544       .  S
C697        C721   1.522       .  S
C698        H705   1.086       .  S
C698        C699   1.364       .  D
C699        C700   1.529       .  S
C699        C762   1.442       .  S
C700        C704   1.542   1_455  S
C700        C702   1.525       .  S
C700        H706   1.108       .  S
C701        H707   1.086       .  S
C701        C702   1.366       .  D
C702        C726   1.478       .  S
C703        H708   1.086       .  S
C703        C704   1.374       .  D
C704        C770   1.492       .  S
C709        C710   1.541       .  S
C709        C715   1.541   1_455  S
C709        C713   1.540       .  S
C709        C722   1.526       .  S
C710        H717   1.086       .  S
C710        C711   1.363       .  D
C711        C712   1.529       .  S
C711        C766   1.442       .  S
C712        C716   1.537   1_455  S
C712        C714   1.538       .  S
C712        H718   1.111       .  S
C713        H719   1.086       .  S
C713        C714   1.367       .  D
C714        C746   1.484       .  S
C715        H720   1.084       .  S
C715        C716   1.374       .  D
C716        C814   1.486       .  S
C721        H723   1.087       .  S
C721        C722   1.349       .  D
C722        H724   1.086   1_455  S
C725        H727   1.088       .  S
C725        C726   1.336       .  D
C726        H728   1.086       .  S
C729        H731   1.088       .  S
C729        C730   1.346   1_545  D
C730        H732   1.085       .  S
C733        H735   1.087       .  S
C733        C734   1.342       .  D
C734        H736   1.086       .  S
C737        H739   1.089       .  S
C737        C738   1.348       .  D
C738        H740   1.085       .  S
C741        H743   1.087       .  S
C741        C742   1.337       .  D
C742        H744   1.086       .  S
C745        H747   1.086       .  S
C745        C746   1.344       .  D
C746        H748   1.087       .  S
C749        H751   1.087       .  S
C749        C750   1.350       .  D
C750        H752   1.082       .  S
C753        C754   1.204       .  T
C755        C756   1.204       .  T
C757        C758   1.206       .  T
C759        C760   1.206       .  T
C761        C762   1.206       .  T
C763        C764   1.212       .  T
C765        C766   1.206       .  T
C767        C768   1.208       .  T
C769        H771   1.082       .  S
C769        C770   1.347       .  D
C770        H772   1.086       .  S
C773        H775   1.085       .  S
C773        C774   1.336       .  D
C774        H776   1.081       .  S
C777        H779   1.087       .  S
C777        C778   1.348       .  D
C778        H780   1.087       .  S
C781        H783   1.084       .  S
C781        C782   1.342       .  D
C782        H784   1.086       .  S
C785        H787   1.087       .  S
C785        C786   1.336       .  D
C786        H788   1.087       .  S
C789        H791   1.084       .  S
C789        C790   1.344       .  D
C790        H792   1.081       .  S
C793        H795   1.081   1_455  S
C793        C794   1.350       .  D
C794        H796   1.086       .  S
C797        H799   1.085       .  S
C797        C798   1.340       .  D
C798        H800   1.083       .  S
C801        H803   1.087       .  S
C801        C802   1.342       .  D
C802        H804   1.087       .  S
C805        H807   1.086       .  S
C805        C806   1.339       .  D
C806        H808   1.083       .  S
C809        H811   1.084       .  S
C809        C810   1.345       .  D
C810        H812   1.087       .  S
C813        H815   1.084       .  S
C813        C814   1.344       .  D
C814        H816   1.081       .  S
C817        H819   1.087       .  S
C817        C818   1.343       .  D
C818        H820   1.087       .  S
C821        H823   1.084       .  S
C821        C822   1.337       .  D
C822        H824   1.086       .  S
C825        H827   1.087       .  S
C825        C826   1.341       .  D
C826        H828   1.087       .  S
C829        H831   1.086       .  S
C829        C830   1.347       .  D
C830        H832   1.086       .  S
C833        C834   1.207       .  T
C835        C836   1.209       .  T
C837        C838   1.211       .  T
C839        C840   1.207       .  T
C841        C842   1.207       .  T
C843        C844   1.209       .  T
C845        C846   1.210       .  T
C847        C848   1.207       .  T
