geometry optimzed in LAMMPS
_audit_creation_date              2020-11-30 
_audit_creation_method            'lammps2cif' 
_symmetry_space_group_name_H-M    'P1' 
_symmetry_Int_Tables_number       1 
_symmetry_cell_setting            triclinic 
loop_ 
_symmetry_equiv_pos_as_xyz 
  x,y,z 
_cell_length_a                    31.11451675 
_cell_length_b                    31.11410533746488 
_cell_length_c                    43.6265365584523 
_cell_angle_alpha                 89.99618127344776 
_cell_angle_beta                  90.00346956573377 
_cell_angle_gamma                 120.00993376364785 
loop_ 
_atom_site_label 
_atom_site_type_symbol 
_atom_site_fract_x 
_atom_site_fract_y 
_atom_site_fract_z 
_atom_site_charge 
Zn1        Zn  0.40185860  0.20092373  0.84844173     1.49700
Zn2        Zn  0.29907019  0.09812117  0.84844151     1.49400
Zn3        Zn  0.29906581  0.20089929  0.84844231     1.49100
Zn4        Zn  0.33332916  0.16665745  0.78818081     1.49500
O5          O  0.33333116  0.16665018  0.83329963    -1.79800
O6          O  0.41594565  0.15559222  0.87419216    -0.70500
O7          O  0.23965098  0.08402299  0.87419517    -0.70300
O8          O  0.34439893  0.26031662  0.87419592    -0.69800
O9          O  0.34441036  0.08404346  0.87418914    -0.70500
O10         O  0.41594185  0.26034025  0.87419309    -0.70100
O11         O  0.23964896  0.15555381  0.87419235    -0.70700
O12         O  0.29831258  0.20167920  0.77149241    -0.70100
O13         O  0.27474849  0.04948510  0.81341603    -0.70800
O14         O  0.27474499  0.22522101  0.81342040    -0.70200
O15         O  0.29830140  0.09661496  0.77149000    -0.70700
O16         O  0.40337194  0.20168183  0.77149043    -0.70600
O17         O  0.45049811  0.22524940  0.81341725    -0.70400
C18         C  0.38955651  0.11044268  0.88222397     0.81400
C19         C  0.22089724  0.11040885  0.88222881     0.81900
C20         C  0.38954573  0.27908088  0.88222967     0.80900
C21         C  0.27714660  0.22283363  0.78442505     0.81200
C22         C  0.27714137  0.05428438  0.78442092     0.82400
C23         C  0.44570125  0.22284890  0.78442198     0.81400
C24         C  0.16667670  0.33331610  0.71411614     0.01800
C25         C  0.49999474  0.99999159  0.95248730     0.01800
Zn26       Zn  0.06850529  0.03425052  0.51511769     1.49700
Zn27       Zn  0.00001986  0.49999267  0.45482613     1.49400
Zn28       Zn  0.46575414  0.43144550  0.51511317     1.49100
Zn29       Zn  0.46571582  0.03425777  0.51510379     1.49500
O30         O  0.00001913  0.49998546  0.49995807    -1.79800
O31         O  0.11716114  0.05858037  0.48008441    -0.70500
O32         O  0.46498122  0.42992733  0.43814499    -0.70300
O33         O  0.01111433  0.41736466  0.54085753    -0.69800
O34         O  0.07004855  0.03503162  0.43815022    -0.70500
O35         O  0.08264665  0.48891726  0.54086598    -0.70100
O36         O  0.44142534  0.38280251  0.48007472    -0.70700
O37         O  0.40630400  0.48887357  0.54085767    -0.70100
O38         O  0.46495401  0.03501871  0.43813632    -0.70800
O39         O  0.40631616  0.41734705  0.54086948    -0.70200
O40         O  0.44140183  0.05858061  0.48006374    -0.70700
O41         O  0.01106777  0.09369692  0.54085565    -0.70600
O42         O  0.08259493  0.09368778  0.54087151    -0.70400
C43         C  0.11237691  0.05619181  0.45108637     0.81400
C44         C  0.44381702  0.38759513  0.45107729     0.82800
C45         C  0.05626407  0.44376107  0.54889157     0.80900
C46         C  0.38754714  0.44372551  0.54889458     0.81200
C47         C  0.44379407  0.05618359  0.45106667     0.82400
C48         C  0.05621428  0.11245508  0.54889469     0.81400
C49         C  0.33332127  0.16664700  0.38069242     0.01800
C50         C  0.16667864  0.33332392  0.61926389     0.01800
Zn51       Zn  0.20094049  0.40186407  0.15147857     1.49700
Zn52       Zn  0.09813795  0.29904872  0.15148365     1.49400
Zn53       Zn  0.20094262  0.29907006  0.15147312     1.49100
Zn54       Zn  0.16669127  0.33331783  0.21177251     1.49500
O55         O  0.16667794  0.33332566  0.16663013    -1.79800
O56         O  0.15556751  0.41595667  0.12574467    -0.70500
O57         O  0.08402748  0.23958106  0.12574751    -0.70300
O58         O  0.26040776  0.34444950  0.12573762    -0.69800
O59         O  0.08402646  0.34441048  0.12575106    -0.70500
O60         O  0.26041369  0.41598620  0.12574360    -0.70100
O61         O  0.15557059  0.23960165  0.12573685    -0.70700
O62         O  0.20171385  0.29830661  0.22845669    -0.70100
O63         O  0.04953849  0.27473980  0.18653763    -0.70800
O64         O  0.22525556  0.27476308  0.18651636    -0.70200
O65         O  0.09665991  0.29829197  0.22846868    -0.70700
O66         O  0.20170653  0.40335244  0.22846341    -0.70600
O67         O  0.22523811  0.45046874  0.18652942    -0.70400
C68         C  0.11040824  0.38956812  0.11772614     0.81400
C69         C  0.11041141  0.22081932  0.11771885     0.81900
C70         C  0.27918328  0.38960777  0.11771776     0.80900
C71         C  0.22287033  0.27715146  0.21551406     0.81200
C72         C  0.05433355  0.27713196  0.21553436     0.82400
C73         C  0.22285261  0.44567739  0.21552641     0.81400
C74         C  0.00001220  0.49998757  0.04731805     0.01800
C75         C  0.33334227  0.16666259  0.28582390     0.01800
C76         C  0.32345343  0.41174919  0.09945982    -0.14200
C77         C  0.36178493  0.43090851  0.08522872     0.09800
C78         C  0.40807087  0.45403665  0.07011569     0.11700
C79         C  0.44890694  0.47444250  0.05880809    -0.15100
C80         C  0.02554488  0.05109550  0.05880877    -0.14200
C81         C  0.04596538  0.09193238  0.07011568     0.09800
C82         C  0.06910818  0.13821875  0.08522851     0.11700
C83         C  0.08827383  0.17655008  0.09945998    -0.15100
C84         C  0.08826785  0.41169966  0.09947141    -0.14200
C85         C  0.06910199  0.43086501  0.08524219     0.09800
C86         C  0.04596409  0.45400959  0.07012809     0.11700
C87         C  0.02555397  0.47442995  0.05881694    -0.15100
C88         C  0.24485917  0.25516636  0.23407648    -0.14200
C89         C  0.26404517  0.23598059  0.24828759     0.09800
C90         C  0.28728810  0.21273436  0.26320237     0.11700
C91         C  0.30777091  0.19224554  0.27434923    -0.15100
C92         C  0.30775844  0.11549838  0.27435730    -0.14200
C93         C  0.28726918  0.07451859  0.26321652     0.09800
C94         C  0.26402180  0.02802307  0.24830508     0.11700
C95         C  0.24482708  0.48964705  0.23409461    -0.15100
C96         C  0.38451178  0.19224633  0.27436654    -0.14200
C97         C  0.42549459  0.21273274  0.26323020     0.09800
C98         C  0.47199169  0.23597329  0.24832067     0.11700
C99         C  0.01036649  0.25515006  0.23410516    -0.15100
C100        C  0.33332029  0.16665104  0.34709393    -0.09000
C101        C  0.33332828  0.16665747  0.31942078    -0.10500
C102        C  0.28215271  0.14106143  0.39216410    -0.14200
C103        C  0.24118772  0.12058199  0.40333232     0.09800
C104        C  0.19471601  0.09735273  0.41828316     0.11700
C105        C  0.15635511  0.07817783  0.43251486    -0.15100
C106        C  0.42182787  0.34362135  0.43250247    -0.14200
C107        C  0.40264543  0.30525957  0.41827201     0.09800
C108        C  0.37940425  0.25878427  0.40332607     0.11700
C109        C  0.35891485  0.21781634  0.39216218    -0.15100
C110        C  0.42180827  0.07816744  0.43249096    -0.14200
C111        C  0.40262531  0.09734590  0.41826340     0.09800
C112        C  0.37938484  0.12058031  0.40332193     0.11700
C113        C  0.35890086  0.14106212  0.39216090    -0.15100
C114        C  0.21778770  0.35886862  0.60776711    -0.14200
C115        C  0.25863235  0.37927900  0.59646838     0.09800
C116        C  0.30493986  0.40242012  0.58137768     0.11700
C117        C  0.34328486  0.42158801  0.56715970    -0.15100
C118        C  0.14110995  0.28221487  0.60776691    -0.14200
C119        C  0.12068092  0.24136997  0.59646833     0.09800
C120        C  0.09752331  0.19506215  0.58137796     0.11700
C121        C  0.07834876  0.15671701  0.56716007    -0.15100
C122        C  0.07840010  0.42163399  0.56715367    -0.14200
C123        C  0.09757439  0.40246398  0.58136966     0.09800
C124        C  0.12072537  0.37931092  0.59646041     0.11700
C125        C  0.14113992  0.35888626  0.60776175    -0.15100
C126        C  0.00000087  0.49999105  0.98607048    -0.09000
C127        C  0.00000906  0.49998747  0.01373496    -0.10500
C128        C  0.16667668  0.33331862  0.68052414    -0.09000
C129        C  0.16667724  0.33332262  0.65285458    -0.10500
C130        C  0.47442488  0.44888222  0.94100266    -0.14200
C131        C  0.45399020  0.40801047  0.92974943     0.09800
C132        C  0.43082918  0.36167130  0.91470852     0.11700
C133        C  0.41166213  0.32332080  0.90050356    -0.15100
C134        C  0.05109823  0.02553661  0.94100447    -0.14200
C135        C  0.09196928  0.04596038  0.92975049     0.09800
C136        C  0.13830740  0.06911527  0.91470835     0.11700
C137        C  0.17665727  0.08828346  0.90050277    -0.15100
C138        C  0.41168164  0.08832544  0.90049333    -0.14200
C139        C  0.43085869  0.06915263  0.91469616     0.09800
C140        C  0.45402571  0.04598579  0.92973924     0.11700
C141        C  0.47445453  0.02555035  0.94099765    -0.15100
C142        C  0.25516553  0.24481859  0.76585586    -0.14200
C143        C  0.23598049  0.26400701  0.75164696     0.09800
C144        C  0.21273824  0.28725176  0.73673098     0.11700
C145        C  0.19225395  0.30773703  0.72558281    -0.15100
C146        C  0.11551376  0.30773274  0.72557972    -0.14200
C147        C  0.07453921  0.28725112  0.73672600     0.09800
C148        C  0.02804804  0.26401593  0.75164124     0.11700
C149        C  0.48966848  0.24483016  0.76585147    -0.15100
C150        C  0.19226147  0.38447911  0.72557974    -0.14200
C151        C  0.21274608  0.42545429  0.73672528     0.09800
C152        C  0.23598580  0.47194616  0.75163957     0.11700
C153        C  0.25515883  0.01031819  0.76584983    -0.15100
Zn154      Zn  0.40185409  0.70092362  0.84844880     1.49700
Zn155      Zn  0.29906585  0.59812469  0.84844039     1.49400
Zn156      Zn  0.29906479  0.70090609  0.84843429     1.49100
Zn157      Zn  0.33333959  0.66666135  0.78818012     1.49500
O158        O  0.33333124  0.66665363  0.83329893    -1.79800
O159        O  0.41593303  0.65559121  0.87420432    -0.70500
O160        O  0.23964139  0.58402938  0.87418701    -0.70300
O161        O  0.34439251  0.76032243  0.87419067    -0.69800
O162        O  0.34439728  0.58404333  0.87419489    -0.70500
O163        O  0.41593282  0.76034088  0.87419754    -0.70100
O164        O  0.23964069  0.65556103  0.87417910    -0.70700
O165        O  0.29833027  0.70168607  0.77148394    -0.70100
O166        O  0.27475085  0.54948899  0.81341484    -0.70800
O167        O  0.27475454  0.72522976  0.81340750    -0.70200
O168        O  0.29831349  0.59661895  0.77148888    -0.70700
O169        O  0.40338677  0.70168265  0.77149792    -0.70600
O170        O  0.45050239  0.72524698  0.81342942    -0.70400
C171        C  0.38954115  0.61044129  0.88223464     0.81400
C172        C  0.22088651  0.61041611  0.88221632     0.81900
C173        C  0.38953687  0.77908401  0.88222936     0.80900
C174        C  0.27716269  0.72284212  0.78441257     0.81200
C175        C  0.27714978  0.55428831  0.78441975     0.82400
C176        C  0.44571263  0.72284715  0.78443374     0.81400
C177        C  0.16667660  0.83331475  0.71411403     0.01800
C178        C  0.49998880  0.49999042  0.95248509     0.01800
Zn179      Zn  0.06855688  0.53426627  0.51511267     1.49700
Zn180      Zn  0.99997924  0.99999248  0.45482774     1.49400
Zn181      Zn  0.46568789  0.93144499  0.51511111     1.49100
Zn182      Zn  0.46574506  0.53424101  0.51510788     1.49500
O183        O  0.99996967  0.99998580  0.49995965    -1.79800
O184        O  0.11720384  0.55859417  0.48007647    -0.70500
O185        O  0.46495473  0.92992785  0.43814288    -0.70300
O186        O  0.01102385  0.91735298  0.54087212    -0.69800
O187        O  0.07008569  0.53502618  0.43814449    -0.70500
O188        O  0.08257411  0.98888783  0.54087212    -0.70100
O189        O  0.44137468  0.88280256  0.48007242    -0.70700
O190        O  0.40626756  0.98890473  0.54085266    -0.70100
O191        O  0.46499461  0.53502485  0.43814109    -0.70800
O192        O  0.40624072  0.91735884  0.54085380    -0.70200
O193        O  0.44142505  0.55856552  0.48006996    -0.70700
O194        O  0.01109511  0.59368084  0.54085950    -0.70600
O195        O  0.08263836  0.59370392  0.54086407    -0.70400
C196        C  0.11241540  0.55619445  0.45107883     0.81400
C197        C  0.44378383  0.88759552  0.45107500     0.82800
C198        C  0.05617627  0.94373648  0.54890400     0.80900
C199        C  0.38748864  0.94375106  0.54888196     0.81200
C200        C  0.44382658  0.55618082  0.45107253     0.82400
C201        C  0.05624583  0.61245527  0.54889276     0.81400
C202        C  0.33336012  0.66664766  0.38069016     0.01800
C203        C  0.16662548  0.83332446  0.61926171     0.01800
Zn204      Zn  0.20091903  0.90186727  0.15147584     1.49700
Zn205      Zn  0.09811542  0.79905154  0.15147013     1.49400
Zn206      Zn  0.20092033  0.79907330  0.15148186     1.49100
Zn207      Zn  0.16664388  0.83332108  0.21176997     1.49500
O208        O  0.16664935  0.83332884  0.16662762    -1.79800
O209        O  0.15554766  0.91596983  0.12574743    -0.70500
O210        O  0.08401617  0.73958410  0.12573616    -0.70300
O211        O  0.26039166  0.84444930  0.12574907    -0.69800
O212        O  0.08401331  0.84441670  0.12573527    -0.70500
O213        O  0.26038391  0.91597907  0.12573536    -0.70100
O214        O  0.15555930  0.73960475  0.12574364    -0.70700
O215        O  0.20164392  0.79829447  0.22846631    -0.70100
O216        O  0.04950085  0.77474367  0.18651580    -0.70800
O217        O  0.22521686  0.77476478  0.18653354    -0.70200
O218        O  0.09660550  0.79831079  0.22845410    -0.70700
O219        O  0.20167526  0.90335588  0.22846064    -0.70600
O220        O  0.22523478  0.95047232  0.18652669    -0.70400
C221        C  0.11039271  0.88957951  0.11772049     0.81400
C222        C  0.11040422  0.72082225  0.11771670     0.81900
C223        C  0.27915969  0.88960217  0.11771862     0.80900
C224        C  0.22281013  0.77714353  0.21553057     0.81200
C225        C  0.05428443  0.77714581  0.21551321     0.82400
C226        C  0.22284210  0.94568089  0.21552370     0.81400
C227        C  0.99998360  0.99998830  0.04731577     0.01800
C228        C  0.33330149  0.66666262  0.28582166     0.01800
C229        C  0.32342839  0.91173989  0.09945906    -0.14200
C230        C  0.36175919  0.93089945  0.08522704     0.09800
C231        C  0.40804548  0.95403056  0.07011408     0.11700
C232        C  0.44888254  0.97443943  0.05880760    -0.15100
C233        C  0.02557537  0.55109503  0.05881054    -0.14200
C234        C  0.04599060  0.59193266  0.07011641     0.09800
C235        C  0.06912207  0.63822020  0.08522785     0.11700
C236        C  0.08827679  0.67655243  0.09945839    -0.15100
C237        C  0.08825351  0.91171411  0.09946785    -0.14200
C238        C  0.06908468  0.93087783  0.08524025     0.09800
C239        C  0.04594124  0.95401749  0.07012727     0.11700
C240        C  0.02552699  0.97443352  0.05881615    -0.15100
C241        C  0.24478702  0.75515344  0.23409992    -0.14200
C242        C  0.26396952  0.73596566  0.24831297     0.09800
C243        C  0.28721692  0.71272050  0.26322456     0.11700
C244        C  0.30771024  0.69223615  0.27436353    -0.15100
C245        C  0.30771850  0.61549801  0.27435594    -0.14200
C246        C  0.28723565  0.57451737  0.26321645     0.09800
C247        C  0.26400145  0.52802066  0.24830654     0.11700
C248        C  0.24483344  0.98965037  0.23409214    -0.15100
C249        C  0.38446026  0.69225476  0.27434720    -0.14200
C250        C  0.42543738  0.71274441  0.26320344     0.09800
C251        C  0.47193231  0.73598474  0.24829205     0.11700
C252        C  0.01031075  0.75516783  0.23407761    -0.15100
C253        C  0.33334345  0.66665199  0.34709166    -0.09000
C254        C  0.33332209  0.66665844  0.31941852    -0.10500
C255        C  0.28219509  0.64105713  0.39216598    -0.14200
C256        C  0.24122889  0.62057627  0.40333160     0.09800
C257        C  0.19475382  0.59734813  0.41827710     0.11700
C258        C  0.15639109  0.57817595  0.43250618    -0.15100
C259        C  0.42181064  0.84362195  0.43250001    -0.14200
C260        C  0.40264549  0.80526026  0.41826949     0.09800
C261        C  0.37942456  0.75878493  0.40332366     0.11700
C262        C  0.35894798  0.71781689  0.39215996    -0.15100
C263        C  0.42184399  0.57816951  0.43249716    -0.14200
C264        C  0.40266655  0.59735089  0.41826616     0.09800
C265        C  0.37943177  0.62058699  0.40331860     0.11700
C266        C  0.35894825  0.64106775  0.39215448    -0.15100
C267        C  0.21772873  0.85889125  0.60775550    -0.14200
C268        C  0.25856972  0.87931269  0.59645186     0.09800
C269        C  0.30487538  0.90245824  0.58135920     0.11700
C270        C  0.34322168  0.92162336  0.56714264    -0.15100
C271        C  0.14107527  0.78221558  0.60776444    -0.14200
C272        C  0.12066499  0.74137072  0.59646580     0.09800
C273        C  0.09752948  0.69506293  0.58137544     0.11700
C274        C  0.07837002  0.65671759  0.56715777    -0.15100
C275        C  0.07829878  0.92159959  0.56716978    -0.14200
C276        C  0.09747004  0.90242673  0.58138612     0.09800
C277        C  0.12062873  0.87927829  0.59647363     0.11700
C278        C  0.14105889  0.85886500  0.60776934    -0.15100
C279        C  0.99998750  0.99999159  0.98606818    -0.09000
C280        C  0.99998583  0.99998869  0.01373266    -0.10500
C281        C  0.16665941  0.83331808  0.68052200    -0.09000
C282        C  0.16664250  0.83332256  0.65285242    -0.10500
C283        C  0.47442855  0.94888381  0.94100420    -0.14200
C284        C  0.45398857  0.90801252  0.92975034     0.09800
C285        C  0.43082120  0.86167386  0.91470882     0.11700
C286        C  0.41165135  0.82332366  0.90050353    -0.15100
C287        C  0.05109273  0.52554308  0.94099896    -0.14200
C288        C  0.09195972  0.54596897  0.92973950     0.09800
C289        C  0.13829435  0.56912441  0.91469348     0.11700
C290        C  0.17664361  0.58829211  0.90048739    -0.15100
C291        C  0.41166141  0.58832169  0.90050659    -0.14200
C292        C  0.43083744  0.56914716  0.91470886     0.09800
C293        C  0.45400653  0.54597894  0.92974817     0.11700
C294        C  0.47443969  0.52554424  0.94100178    -0.15100
C295        C  0.25518608  0.74482759  0.76583944    -0.14200
C296        C  0.23600106  0.76401524  0.75162949     0.09800
C297        C  0.21275528  0.78725834  0.73671528     0.11700
C298        C  0.19226495  0.80774106  0.72557165    -0.15100
C299        C  0.11551918  0.80772551  0.72558639    -0.14200
C300        C  0.07454855  0.78724123  0.73673783     0.09800
C301        C  0.02806036  0.76400471  0.75165614     0.11700
C302        C  0.48968394  0.74482690  0.76586741    -0.15100
C303        C  0.19225922  0.88447741  0.72557826    -0.14200
C304        C  0.21274025  0.92545198  0.73672464     0.09800
C305        C  0.23597638  0.97194294  0.75164001     0.11700
C306        C  0.25516916  0.51032204  0.76584874    -0.15100
Zn307      Zn  0.90186196  0.20093043  0.84844057     1.49700
Zn308      Zn  0.79907371  0.09812820  0.84843943     1.49400
Zn309      Zn  0.79906916  0.20090595  0.84844098     1.49100
Zn310      Zn  0.83333268  0.16666492  0.78817923     1.49500
O311        O  0.83333474  0.16665725  0.83329813    -1.79800
O312        O  0.91594857  0.15559848  0.87419082    -0.70500
O313        O  0.73965419  0.08402930  0.87419273    -0.70300
O314        O  0.84440197  0.26032303  0.87419484    -0.69800
O315        O  0.84441332  0.08404972  0.87418673    -0.70500
O316        O  0.91594485  0.26034657  0.87419221    -0.70100
O317        O  0.73965220  0.15556010  0.87419099    -0.70700
O318        O  0.79831620  0.20168683  0.77149119    -0.70100
O319        O  0.77475211  0.04949280  0.81341383    -0.70800
O320        O  0.77474780  0.22522736  0.81341938    -0.70200
O321        O  0.79830499  0.09662269  0.77148787    -0.70700
O322        O  0.90337577  0.20168922  0.77148909    -0.70600
O323        O  0.95050145  0.22525598  0.81341617    -0.70400
C324        C  0.88955925  0.11044866  0.88222201     0.81400
C325        C  0.72090037  0.11041486  0.88222683     0.81900
C326        C  0.88954863  0.27908706  0.88222886     0.80900
C327        C  0.77714956  0.22284040  0.78442403     0.81200
C328        C  0.77714494  0.05429208  0.78441874     0.82400
C329        C  0.94570491  0.22285559  0.78442089     0.81400
C330        C  0.66667241  0.33331607  0.71411610     0.01800
C331        C  0.99999035  0.99999160  0.95248717     0.01800
Zn332      Zn  0.56851100  0.03424972  0.51511655     1.49700
Zn333      Zn  0.50001945  0.49999226  0.45482955     1.49400
Zn334      Zn  0.96575366  0.43144441  0.51510924     1.49100
Zn335      Zn  0.96570927  0.03425671  0.51510264     1.49500
O336        O  0.50001951  0.49998627  0.49996144    -1.79800
O337        O  0.61716548  0.05857903  0.48008249    -0.70500
O338        O  0.96498182  0.42992837  0.43814090    -0.70300
O339        O  0.51111507  0.41736612  0.54086131    -0.69800
O340        O  0.57005107  0.03503234  0.43814909    -0.70500
O341        O  0.58264809  0.48891809  0.54086814    -0.70100
O342        O  0.94142539  0.38280251  0.48007022    -0.70700
O343        O  0.90630495  0.48887285  0.54085543    -0.70100
O344        O  0.96495224  0.03501936  0.43813512    -0.70800
O345        O  0.90631567  0.41734564  0.54086570    -0.70200
O346        O  0.94139620  0.05857915  0.48006178    -0.70700
O347        O  0.51107577  0.09369733  0.54085657    -0.70600
O348        O  0.58260257  0.09368744  0.54087060    -0.70400
C349        C  0.61238001  0.05619162  0.45108451     0.81400
C350        C  0.94381745  0.38759588  0.45107282     0.82800
C351        C  0.55626540  0.44376215  0.54889423     0.80900
C352        C  0.88754767  0.44372456  0.54889187     0.81200
C353        C  0.94379078  0.05618327  0.45106477     0.82400
C354        C  0.55622262  0.11245509  0.54889470     0.81400
C355        C  0.83332203  0.16664838  0.38068780     0.01800
C356        C  0.66668168  0.33332393  0.61926383     0.01800
Zn357      Zn  0.70093471  0.40186403  0.15147858     1.49700
Zn358      Zn  0.59813190  0.29904804  0.15148412     1.49400
Zn359      Zn  0.70093715  0.29907047  0.15147283     1.49100
Zn360      Zn  0.66668745  0.33331782  0.21177252     1.49500
O361        O  0.66667239  0.33332547  0.16663016    -1.79800
O362        O  0.65556153  0.41595570  0.12574423    -0.70500
O363        O  0.58402096  0.23957938  0.12574866    -0.70300
O364        O  0.76040330  0.34445077  0.12573835    -0.69800
O365        O  0.58402073  0.34440913  0.12575042    -0.70500
O366        O  0.76040867  0.41598713  0.12574406    -0.70100
O367        O  0.65556580  0.23960343  0.12573579    -0.70700
O368        O  0.70170835  0.29830441  0.22845616    -0.70100
O369        O  0.54953361  0.27474130  0.18653889    -0.70800
O370        O  0.72524933  0.27476166  0.18651527    -0.70200
O371        O  0.59665668  0.29829422  0.22846932    -0.70700
O372        O  0.70170532  0.40335244  0.22846340    -0.70600
O373        O  0.72523274  0.45046873  0.18652942    -0.70400
C374        C  0.61040254  0.38956665  0.11772521     0.81400
C375        C  0.61040598  0.22081935  0.11771891     0.81900
C376        C  0.77917899  0.38960914  0.11771872     0.80900
C377        C  0.72286427  0.27714912  0.21551299     0.81200
C378        C  0.55432987  0.27713445  0.21553557     0.82400
C379        C  0.72285010  0.44567740  0.21552641     0.81400
C380        C  0.50001288  0.49998886  0.04731367     0.01800
C381        C  0.83334237  0.16666271  0.28581938     0.01800
C382        C  0.82345044  0.41175121  0.09946197    -0.14200
C383        C  0.86178308  0.43091019  0.08523200     0.09800
C384        C  0.90806996  0.45403709  0.07012002     0.11700
C385        C  0.94890638  0.47444182  0.05881283    -0.15100
C386        C  0.52555044  0.05109552  0.05880880    -0.14200
C387        C  0.54596803  0.09193241  0.07011569     0.09800
C388        C  0.56910663  0.13821879  0.08522853     0.11700
C389        C  0.58826938  0.17655011  0.09946002    -0.15100
C390        C  0.58826275  0.41169750  0.09946934    -0.14200
C391        C  0.56909840  0.43086318  0.08523896     0.09800
C392        C  0.54596261  0.45400893  0.07012380     0.11700
C393        C  0.52555405  0.47443054  0.05881232    -0.15100
C394        C  0.74485327  0.25516331  0.23407469    -0.14200
C395        C  0.76404062  0.23597769  0.24828462     0.09800
C396        C  0.78728583  0.21273243  0.26319798     0.11700
C397        C  0.80777019  0.19224463  0.27434418    -0.15100
C398        C  0.80775811  0.11549760  0.27435461    -0.14200
C399        C  0.78726793  0.07451599  0.26321653     0.09800
C400        C  0.76401921  0.02801777  0.24830851     0.11700
C401        C  0.74482707  0.48964705  0.23409461    -0.15100
C402        C  0.88451164  0.19224538  0.27436147    -0.14200
C403        C  0.92549488  0.21273078  0.26322566     0.09800
C404        C  0.97199322  0.23597033  0.24831750     0.11700
C405        C  0.51036373  0.25515333  0.23410712    -0.15100
C406        C  0.83332134  0.16665294  0.34708934    -0.09000
C407        C  0.83332939  0.16665956  0.31941621    -0.10500
C408        C  0.78215342  0.14106279  0.39215943    -0.14200
C409        C  0.74118876  0.12058302  0.40332816     0.09800
C410        C  0.69471760  0.09735317  0.41827974     0.11700
C411        C  0.65635738  0.07817796  0.43251217    -0.15100
C412        C  0.92182863  0.34362262  0.43249763    -0.14200
C413        C  0.90264638  0.30526097  0.41826706     0.09800
C414        C  0.87940505  0.25878563  0.40332127     0.11700
C415        C  0.85891556  0.21781759  0.39215760    -0.15100
C416        C  0.92180599  0.07816732  0.43248829    -0.14200
C417        C  0.90262394  0.09734600  0.41825998     0.09800
C418        C  0.87938475  0.12058106  0.40331775     0.11700
C419        C  0.85890146  0.14106329  0.39215631    -0.15100
C420        C  0.71779142  0.35886972  0.60776810    -0.14200
C421        C  0.75863585  0.37928005  0.59646900     0.09800
C422        C  0.80494235  0.40242031  0.58137703     0.11700
C423        C  0.84328637  0.42158754  0.56715798    -0.15100
C424        C  0.64111506  0.28221487  0.60776689    -0.14200
C425        C  0.62068798  0.24136995  0.59646833     0.09800
C426        C  0.59753209  0.19506215  0.58137796     0.11700
C427        C  0.57835810  0.15671701  0.56716007    -0.15100
C428        C  0.57840205  0.42163468  0.56715537    -0.14200
C429        C  0.59757653  0.40246387  0.58137031     0.09800
C430        C  0.62072772  0.37930989  0.59645973     0.11700
C431        C  0.64114251  0.35888516  0.60776060    -0.15100
C432        C  0.50000130  0.49999171  0.98606610    -0.09000
C433        C  0.50001021  0.49998958  0.01373058    -0.10500
C434        C  0.66667413  0.33331862  0.68052409    -0.09000
C435        C  0.66667765  0.33332265  0.65285452    -0.10500
C436        C  0.97442604  0.44888513  0.94100560    -0.14200
C437        C  0.95399185  0.40801422  0.92975122     0.09800
C438        C  0.93083154  0.36167614  0.91470904     0.11700
C439        C  0.91166474  0.32332639  0.90050331    -0.15100
C440        C  0.55110174  0.02553733  0.94100313    -0.14200
C441        C  0.59197229  0.04596229  0.92974843     0.09800
C442        C  0.63831021  0.06911898  0.91470606     0.11700
C443        C  0.67666015  0.08828859  0.90050056    -0.15100
C444        C  0.91168388  0.08833066  0.90049108    -0.14200
C445        C  0.93085982  0.06915667  0.91469382     0.09800
C446        C  0.95402488  0.04598799  0.92973700     0.11700
C447        C  0.97445184  0.02555115  0.94099604    -0.15100
C448        C  0.75516741  0.24482439  0.76585510    -0.14200
C449        C  0.73598048  0.26401122  0.75164660     0.09800
C450        C  0.71273602  0.28725399  0.73673106     0.11700
C451        C  0.69225022  0.30773791  0.72558319    -0.15100
C452        C  0.61550908  0.30773184  0.72557926    -0.14200
C453        C  0.57453464  0.28724892  0.73672580     0.09800
C454        C  0.52804382  0.26401187  0.75164162     0.11700
C455        C  0.98967239  0.24483568  0.76585069    -0.15100
C456        C  0.69225643  0.38447908  0.72557972    -0.14200
C457        C  0.71274196  0.42545429  0.73672524     0.09800
C458        C  0.73598401  0.47194624  0.75163945     0.11700
C459        C  0.75516237  0.01032570  0.76584781    -0.15100
Zn460      Zn  0.90185788  0.70092470  0.84844817     1.49700
Zn461      Zn  0.79907036  0.59812471  0.84844037     1.49400
Zn462      Zn  0.79906749  0.70090503  0.84843457     1.49100
Zn463      Zn  0.83334156  0.66666139  0.78818011     1.49500
O464        O  0.83333465  0.66665377  0.83329890    -1.79800
O465        O  0.91593709  0.65559332  0.87420488    -0.70500
O466        O  0.73964468  0.58402799  0.87418621    -0.70300
O467        O  0.84439433  0.76032060  0.87419156    -0.69800
O468        O  0.84440201  0.58404472  0.87419559    -0.70500
O469        O  0.91593649  0.76034273  0.87419634    -0.70100
O470        O  0.73964262  0.65555894  0.87417837    -0.70700
O471        O  0.79833319  0.70168757  0.77148434    -0.70100
O472        O  0.77475570  0.54948902  0.81341476    -0.70800
O473        O  0.77475785  0.72523018  0.81340845    -0.70200
O474        O  0.79831386  0.59661906  0.77148886    -0.70700
O475        O  0.90338810  0.70168121  0.77149728    -0.70600
O476        O  0.95050514  0.72524659  0.81342821    -0.70400
C477        C  0.88954560  0.61044354  0.88223566     0.81400
C478        C  0.72088863  0.61041385  0.88221512     0.81900
C479        C  0.88953934  0.77908404  0.88222919     0.80900
C480        C  0.77716590  0.72284350  0.78441348     0.81200
C481        C  0.77715190  0.55428840  0.78441967     0.82400
C482        C  0.94571439  0.72284578  0.78443257     0.81400
C483        C  0.66667783  0.83331733  0.71411822     0.01800
C484        C  0.99998967  0.49999244  0.95248947     0.01800
Zn485      Zn  0.56855777  0.53426738  0.51511547     1.49700
Zn486      Zn  0.49998241  0.99999249  0.45482774     1.49400
Zn487      Zn  0.96568371  0.93144496  0.51511110     1.49100
Zn488      Zn  0.96574488  0.53423993  0.51510491     1.49500
O489        O  0.49997457  0.99998586  0.49995966    -1.79800
O490        O  0.61720455  0.55859628  0.48007903    -0.70500
O491        O  0.96495120  0.92992780  0.43814292    -0.70300
O492        O  0.51102716  0.91735307  0.54087302    -0.69800
O493        O  0.57008530  0.53502542  0.43814752    -0.70500
O494        O  0.58257914  0.98888632  0.54087077    -0.70100
O495        O  0.94136919  0.88280239  0.48007242    -0.70700
O496        O  0.90626108  0.98890321  0.54085133    -0.70100
O497        O  0.96499507  0.53502554  0.43813801    -0.70800
O498        O  0.90623745  0.91735889  0.54085466    -0.70200
O499        O  0.94142364  0.55856336  0.48006731    -0.70700
O500        O  0.51109509  0.59368095  0.54086323    -0.70600
O501        O  0.58263833  0.59370387  0.54086791    -0.70400
C502        C  0.61241543  0.55619512  0.45108142     0.81400
C503        C  0.94377912  0.88759542  0.45107500     0.82800
C504        C  0.55618011  0.94373576  0.54890401     0.80900
C505        C  0.88748406  0.94375032  0.54888193     0.81200
C506        C  0.94382589  0.55618004  0.45106987     0.82400
C507        C  0.55624562  0.61245491  0.54889687     0.81400
C508        C  0.83335810  0.66664763  0.38069009     0.01800
C509        C  0.66662494  0.83332346  0.61926595     0.01800
Zn510      Zn  0.70091577  0.90186065  0.15148154     1.49700
Zn511      Zn  0.59811249  0.79904556  0.15147469     1.49400
Zn512      Zn  0.70091741  0.79906735  0.15148641     1.49100
Zn513      Zn  0.66664036  0.83331399  0.21177504     1.49500
O514        O  0.66664609  0.83332221  0.16663265    -1.79800
O515        O  0.65554502  0.91596392  0.12575312    -0.70500
O516        O  0.58401329  0.73957830  0.12574036    -0.70300
O517        O  0.76038849  0.84444370  0.12575326    -0.69800
O518        O  0.58401070  0.84441091  0.12573958    -0.70500
O519        O  0.76038086  0.91597348  0.12574106    -0.70100
O520        O  0.65555639  0.73959887  0.12574801    -0.70700
O521        O  0.70164057  0.79828738  0.22847103    -0.70100
O522        O  0.54949785  0.77473810  0.18652015    -0.70800
O523        O  0.72521439  0.77475934  0.18653787    -0.70200
O524        O  0.59660171  0.79830348  0.22845884    -0.70700
O525        O  0.70167160  0.90334846  0.22846646    -0.70600
O526        O  0.72523111  0.95046490  0.18653255    -0.70400
C527        C  0.61039044  0.88957400  0.11772541     0.81400
C528        C  0.61040147  0.72081664  0.11772076     0.81900
C529        C  0.77915649  0.88959685  0.11772345     0.80900
C530        C  0.72280754  0.77713748  0.21553491     0.81200
C531        C  0.55428094  0.77713957  0.21551757     0.82400
C532        C  0.72283844  0.94567347  0.21552951     0.81400
C533        C  0.49999032  0.99998830  0.04731584     0.01800
C534        C  0.83330794  0.66666258  0.28582165     0.01800
C535        C  0.82342474  0.91173524  0.09946342    -0.14200
C536        C  0.86175486  0.93089614  0.08523067     0.09800
C537        C  0.90804022  0.95402908  0.07011653     0.11700
C538        C  0.94887645  0.97443909  0.05880881    -0.15100
C539        C  0.52557578  0.55109577  0.05880719    -0.14200
C540        C  0.54599040  0.59193202  0.07011500     0.09800
C541        C  0.56912096  0.63821744  0.08522899     0.11700
C542        C  0.58827470  0.67654795  0.09946132    -0.15100
C543        C  0.58825237  0.91170945  0.09947242    -0.14200
C544        C  0.56908558  0.93087445  0.08524398     0.09800
C545        C  0.54594485  0.95401581  0.07012974     0.11700
C546        C  0.52553266  0.97443314  0.05881750    -0.15100
C547        C  0.74478581  0.75514835  0.23410372    -0.14200
C548        C  0.76397056  0.73596187  0.24831570     0.09800
C549        C  0.78722064  0.71271821  0.26322567     0.11700
C550        C  0.80771568  0.69223489  0.27436351    -0.15100
C551        C  0.80772562  0.61549798  0.27435595    -0.14200
C552        C  0.78724140  0.57451735  0.26321645     0.09800
C553        C  0.76400415  0.52802066  0.24830653     0.11700
C554        C  0.74482990  0.98964320  0.23409760    -0.15100
C555        C  0.88446692  0.69225591  0.27434721    -0.14200
C556        C  0.92544340  0.71274692  0.26320235     0.09800
C557        C  0.97193710  0.73598886  0.24828926     0.11700
C558        C  0.51030688  0.75516255  0.23408147    -0.15100
C559        C  0.83334462  0.66665197  0.34709162    -0.09000
C560        C  0.83332700  0.66665842  0.31941850    -0.10500
C561        C  0.78219230  0.64105665  0.39216487    -0.14200
C562        C  0.74122647  0.62057596  0.40333111     0.09800
C563        C  0.69475245  0.59734842  0.41827805     0.11700
C564        C  0.65639066  0.57817660  0.43250820    -0.15100
C565        C  0.92180584  0.84362190  0.43249997    -0.14200
C566        C  0.90264093  0.80526018  0.41826947     0.09800
C567        C  0.87942050  0.75878485  0.40332361     0.11700
C568        C  0.85894480  0.71781685  0.39215988    -0.15100
C569        C  0.92184277  0.57816875  0.43249510    -0.14200
C570        C  0.90266477  0.59735058  0.41826522     0.09800
C571        C  0.87942952  0.62058725  0.40331907     0.11700
C572        C  0.85894590  0.64106818  0.39215546    -0.15100
C573        C  0.71772793  0.85888984  0.60775936    -0.14200
C574        C  0.75856833  0.87931153  0.59645493     0.09800
C575        C  0.80487297  0.90245743  0.58136115     0.11700
C576        C  0.84321812  0.92162267  0.56714346    -0.15100
C577        C  0.64107447  0.78221431  0.60776923    -0.14200
C578        C  0.62066424  0.74136926  0.59647089     0.09800
C579        C  0.59752878  0.69506142  0.58138062     0.11700
C580        C  0.57836945  0.65671643  0.56716259    -0.15100
C581        C  0.57830168  0.92159892  0.56717062    -0.14200
C582        C  0.59747183  0.90242596  0.58138794     0.09800
C583        C  0.62062902  0.87927719  0.59647668     0.11700
C584        C  0.64105845  0.85886379  0.60777319    -0.15100
C585        C  0.49999455  0.99999161  0.98606830    -0.09000
C586        C  0.49999401  0.99998866  0.01373277    -0.10500
C587        C  0.66665987  0.83331913  0.68052621    -0.09000
C588        C  0.66664238  0.83332259  0.65285664    -0.10500
C589        C  0.97442461  0.94888383  0.94100403    -0.14200
C590        C  0.95398625  0.90801246  0.92975028     0.09800
C591        C  0.93082122  0.86167379  0.91470876     0.11700
C592        C  0.91165298  0.82332369  0.90050336    -0.15100
C593        C  0.55109147  0.52554038  0.94099399    -0.14200
C594        C  0.59195871  0.54596556  0.92973493     0.09800
C595        C  0.63829426  0.56912043  0.91469004     0.11700
C596        C  0.67664454  0.58828859  0.90048504    -0.15100
C597        C  0.91166579  0.58832519  0.90050883    -0.14200
C598        C  0.93084098  0.56915098  0.91471230     0.09800
C599        C  0.95400886  0.54598254  0.92975278     0.11700
C600        C  0.97444118  0.52554726  0.94100677    -0.15100
C601        C  0.75518928  0.74482983  0.76584109    -0.14200
C602        C  0.73600387  0.76401815  0.75163222     0.09800
C603        C  0.71275739  0.78726158  0.73671918     0.11700
C604        C  0.69226651  0.80774412  0.72557608    -0.15100
C605        C  0.61552055  0.80772855  0.72559091    -0.14200
C606        C  0.57454945  0.78724429  0.73674174     0.09800
C607        C  0.52806026  0.76400759  0.75165889     0.11700
C608        C  0.98968496  0.74482457  0.76586559    -0.15100
C609        C  0.69226089  0.88448068  0.72558130    -0.14200
C610        C  0.71274257  0.92545648  0.73672597     0.09800
C611        C  0.73597954  0.97194929  0.75163917     0.11700
C612        C  0.75516953  0.51032214  0.76584863    -0.15100
loop_ 
_geom_bond_atom_site_label_1 
_geom_bond_atom_site_label_2 
_geom_bond_distance 
_geom_bond_site_symmetry_2 
_ccdc_geom_bond_type 
Zn1           O5   1.961       .  S
Zn1           O6   2.015       .  S
Zn1          O10   2.015       .  S
Zn1          O17   2.013       .  S
Zn2           O5   1.961       .  S
Zn2           O7   2.015       .  S
Zn2           O9   2.015       .  S
Zn2          O13   2.013       .  S
Zn3           O5   1.961       .  S
Zn3           O8   2.015       .  S
Zn3          O11   2.015       .  S
Zn3          O14   2.013       .  S
Zn4           O5   1.968       .  S
Zn4          O12   2.023       .  S
Zn4          O15   2.023       .  S
Zn4          O16   2.023       .  S
O6           C18   1.271       .  A
O7           C19   1.271       .  A
O8           C20   1.271       .  A
O9           C18   1.271       .  A
O10          C20   1.271       .  A
O11          C19   1.271       .  A
O12          C21   1.272       .  A
O13          C22   1.272       .  A
O14          C21   1.272       .  A
O15          C22   1.272       .  A
O16          C23   1.272       .  A
O17          C23   1.272       .  A
C18         C138   1.434       .  S
C19         C137   1.434       .  S
C20         C133   1.434       .  S
C21         C142   1.435       .  S
C22         C153   1.435       .  S
C23         C149   1.435       .  S
C24         C128   1.466       .  S
C24         C145   1.466       .  S
C24         C146   1.466       .  S
C24         C150   1.466       .  S
C25         C141   1.465   1_565  S
C25         C585   1.465       .  S
C25         C283   1.465       .  S
C25         C440   1.465   1_565  S
Zn26        O183   1.961   1_445  S
Zn26         O31   2.014       .  S
Zn26         O42   2.016       .  S
Zn26        O188   2.016   1_545  S
Zn27         O30   1.969       .  S
Zn27        O338   2.023   1_455  S
Zn27        O187   2.023       .  S
Zn27        O497   2.023   1_455  S
Zn28        O336   1.961       .  S
Zn28         O36   2.014       .  S
Zn28         O39   2.016       .  S
Zn28        O339   2.016       .  S
Zn29        O489   1.961   1_545  S
Zn29         O40   2.014       .  S
Zn29        O190   2.016   1_545  S
Zn29        O347   2.016       .  S
O30        Zn179   1.961       .  S
O30        Zn334   1.961   1_455  S
O30        Zn488   1.961   1_455  S
O31          C43   1.272       .  A
O32        Zn333   2.023       .  S
O32          C44   1.272       .  A
O33        Zn334   2.016   1_455  S
O33          C45   1.272       .  A
O34        Zn180   2.023   1_445  S
O34          C43   1.272       .  A
O35        Zn179   2.016       .  S
O35          C45   1.272       .  A
O36          C44   1.272       .  A
O37        Zn182   2.016       .  S
O37          C46   1.272       .  A
O38        Zn486   2.023   1_545  S
O38          C47   1.272       .  A
O39          C46   1.272       .  A
O40          C47   1.272       .  A
O41        Zn335   2.016   1_455  S
O41          C48   1.272       .  A
O42          C48   1.272       .  A
C43         C105   1.435       .  S
C44         C106   1.435       .  S
C45         C122   1.434       .  S
C46         C117   1.434       .  S
C47         C110   1.435       .  S
C48         C121   1.434       .  S
C49         C100   1.466       .  S
C49         C102   1.467       .  S
C49         C109   1.467       .  S
C49         C113   1.467       .  S
C50         C114   1.466       .  S
C50         C118   1.466       .  S
C50         C125   1.466       .  S
C50         C129   1.465       .  S
Zn51         O55   1.961       .  S
Zn51         O56   2.016       .  S
Zn51         O60   2.016       .  S
Zn51         O67   2.013       .  S
Zn52         O55   1.961       .  S
Zn52         O57   2.016       .  S
Zn52         O59   2.016       .  S
Zn52         O63   2.013       .  S
Zn53         O55   1.961       .  S
Zn53         O58   2.016       .  S
Zn53         O61   2.016       .  S
Zn53         O64   2.013       .  S
Zn54         O55   1.969       .  S
Zn54         O62   2.023       .  S
Zn54         O65   2.023       .  S
Zn54         O66   2.023       .  S
O56          C68   1.272       .  A
O57          C69   1.272       .  A
O58          C70   1.272       .  A
O59          C68   1.272       .  A
O60          C70   1.272       .  A
O61          C69   1.272       .  A
O62          C71   1.272       .  A
O63          C72   1.272       .  A
O64          C71   1.272       .  A
O65          C72   1.272       .  A
O66          C73   1.272       .  A
O67          C73   1.272       .  A
C68          C84   1.434       .  S
C69          C83   1.434       .  S
C70          C76   1.434       .  S
C71          C88   1.435       .  S
C72          C99   1.435       .  S
C73          C95   1.435       .  S
C74          C87   1.465       .  S
C74         C127   1.465       .  S
C74         C385   1.465   1_455  S
C74         C233   1.465       .  S
C75          C91   1.467       .  S
C75          C92   1.466       .  S
C75          C96   1.467       .  S
C75         C101   1.466       .  S
C76          C77   1.205       .  T
C77          C78   1.411       .  S
C78          C79   1.206       .  T
C79         C380   1.465       .  S
C80         C227   1.465   1_445  S
C80          C81   1.206       .  T
C81          C82   1.411       .  S
C82          C83   1.205       .  T
C84          C85   1.205       .  T
C85          C86   1.411       .  S
C86          C87   1.206       .  T
C88          C89   1.206       .  T
C89          C90   1.412       .  S
C90          C91   1.206       .  T
C92          C93   1.206       .  T
C93          C94   1.412       .  S
C94         C248   1.206   1_545  T
C95         C247   1.206       .  T
C96          C97   1.206       .  T
C97          C98   1.412       .  S
C98         C405   1.206       .  T
C99         C404   1.206   1_455  T
C100        C101   1.207       .  T
C102        C103   1.207       .  T
C103        C104   1.412       .  S
C104        C105   1.206       .  T
C106        C107   1.206       .  T
C107        C108   1.412       .  S
C108        C109   1.206       .  T
C110        C111   1.206       .  T
C111        C112   1.412       .  S
C112        C113   1.206       .  T
C114        C115   1.206       .  T
C115        C116   1.411       .  S
C116        C117   1.205       .  T
C118        C119   1.206       .  T
C119        C120   1.411       .  S
C120        C121   1.205       .  T
C122        C123   1.205       .  T
C123        C124   1.411       .  S
C124        C125   1.206       .  T
C126        C484   1.465   1_455  S
C126        C127   1.207   1_556  T
C128        C129   1.207       .  T
C130        C178   1.465       .  S
C130        C131   1.206       .  T
C131        C132   1.410       .  S
C132        C133   1.205       .  T
C134        C331   1.465   1_445  S
C134        C135   1.206       .  T
C135        C136   1.410       .  S
C136        C137   1.205       .  T
C138        C139   1.205       .  T
C139        C140   1.410       .  S
C140        C141   1.206       .  T
C142        C143   1.206       .  T
C143        C144   1.412       .  S
C144        C145   1.206       .  T
C146        C147   1.206       .  T
C147        C148   1.412       .  S
C148        C455   1.206   1_455  T
C149        C454   1.206       .  T
C150        C151   1.206       .  T
C151        C152   1.412       .  S
C152        C306   1.206       .  T
C153        C305   1.206   1_545  T
Zn154       O158   1.961       .  S
Zn154       O159   2.015       .  S
Zn154       O163   2.015       .  S
Zn154       O170   2.013       .  S
Zn155       O158   1.961       .  S
Zn155       O160   2.015       .  S
Zn155       O162   2.015       .  S
Zn155       O166   2.013       .  S
Zn156       O158   1.961       .  S
Zn156       O161   2.015       .  S
Zn156       O164   2.015       .  S
Zn156       O167   2.013       .  S
Zn157       O158   1.968       .  S
Zn157       O165   2.023       .  S
Zn157       O168   2.023       .  S
Zn157       O169   2.023       .  S
O159        C171   1.271       .  A
O160        C172   1.271       .  A
O161        C173   1.271       .  A
O162        C171   1.271       .  A
O163        C173   1.271       .  A
O164        C172   1.271       .  A
O165        C174   1.272       .  A
O166        C175   1.272       .  A
O167        C174   1.272       .  A
O168        C175   1.272       .  A
O169        C176   1.272       .  A
O170        C176   1.272       .  A
C171        C291   1.434       .  S
C172        C290   1.434       .  S
C173        C286   1.434       .  S
C174        C295   1.435       .  S
C175        C306   1.435       .  S
C176        C302   1.435       .  S
C177        C281   1.466       .  S
C177        C298   1.466       .  S
C177        C299   1.466       .  S
C177        C303   1.466       .  S
C178        C432   1.465       .  S
C178        C593   1.465       .  S
C178        C294   1.465       .  S
Zn179       O184   2.014       .  S
Zn179       O195   2.016       .  S
Zn180       O183   1.969       .  S
Zn180       O491   2.023       .  S
Zn180       O344   2.023   1_565  S
Zn181       O489   1.961       .  S
Zn181       O492   2.016       .  S
Zn181       O189   2.014       .  S
Zn181       O192   2.016       .  S
Zn182       O336   1.961       .  S
Zn182       O193   2.014       .  S
Zn182       O500   2.016       .  S
O183       Zn487   1.961       .  S
O183       Zn335   1.961   1_565  S
O184        C196   1.272       .  A
O185       Zn486   2.023       .  S
O185        C197   1.272       .  A
O186       Zn487   2.016   1_455  S
O186        C198   1.272       .  A
O187        C196   1.272       .  A
O188        C198   1.272       .  A
O189        C197   1.272       .  A
O190        C199   1.272       .  A
O191       Zn333   2.023       .  S
O191        C200   1.272       .  A
O192        C199   1.272       .  A
O193        C200   1.272       .  A
O194       Zn488   2.016   1_455  S
O194        C201   1.272       .  A
O195        C201   1.272       .  A
C196        C258   1.435       .  S
C197        C259   1.435       .  S
C198        C275   1.434       .  S
C199        C270   1.434       .  S
C200        C263   1.435       .  S
C201        C274   1.434       .  S
C202        C253   1.466       .  S
C202        C255   1.467       .  S
C202        C262   1.467       .  S
C202        C266   1.467       .  S
C203        C267   1.466       .  S
C203        C271   1.466       .  S
C203        C278   1.466       .  S
C203        C282   1.465       .  S
Zn204       O208   1.961       .  S
Zn204       O209   2.016       .  S
Zn204       O213   2.016       .  S
Zn204       O220   2.013       .  S
Zn205       O208   1.961       .  S
Zn205       O210   2.016       .  S
Zn205       O212   2.016       .  S
Zn205       O216   2.013       .  S
Zn206       O208   1.961       .  S
Zn206       O211   2.016       .  S
Zn206       O214   2.016       .  S
Zn206       O217   2.013       .  S
Zn207       O208   1.969       .  S
Zn207       O215   2.023       .  S
Zn207       O218   2.023       .  S
Zn207       O219   2.023       .  S
O209        C221   1.272       .  A
O210        C222   1.272       .  A
O211        C223   1.272       .  A
O212        C221   1.272       .  A
O213        C223   1.272       .  A
O214        C222   1.272       .  A
O215        C224   1.272       .  A
O216        C225   1.272       .  A
O217        C224   1.272       .  A
O218        C225   1.272       .  A
O219        C226   1.272       .  A
O220        C226   1.272       .  A
C221        C237   1.434       .  S
C222        C236   1.434       .  S
C223        C229   1.434       .  S
C224        C241   1.435       .  S
C225        C252   1.435       .  S
C226        C248   1.435       .  S
C227        C538   1.465       .  S
C227        C240   1.465   1_655  S
C227        C280   1.465       .  S
C228        C244   1.467       .  S
C228        C245   1.466       .  S
C228        C249   1.466       .  S
C228        C254   1.466       .  S
C229        C230   1.205       .  T
C230        C231   1.411       .  S
C231        C232   1.206       .  T
C232        C533   1.465       .  S
C233        C234   1.206       .  T
C234        C235   1.411       .  S
C235        C236   1.205       .  T
C237        C238   1.205       .  T
C238        C239   1.411       .  S
C239        C240   1.206       .  T
C241        C242   1.206       .  T
C242        C243   1.412       .  S
C243        C244   1.206       .  T
C245        C246   1.206       .  T
C246        C247   1.412       .  S
C249        C250   1.206       .  T
C250        C251   1.412       .  S
C251        C558   1.206       .  T
C252        C557   1.206   1_455  T
C253        C254   1.207       .  T
C255        C256   1.206       .  T
C256        C257   1.412       .  S
C257        C258   1.206       .  T
C259        C260   1.206       .  T
C260        C261   1.412       .  S
C261        C262   1.206       .  T
C263        C264   1.206       .  T
C264        C265   1.412       .  S
C265        C266   1.207       .  T
C267        C268   1.206       .  T
C268        C269   1.411       .  S
C269        C270   1.205       .  T
C271        C272   1.206       .  T
C272        C273   1.411       .  S
C273        C274   1.205       .  T
C275        C276   1.205       .  T
C276        C277   1.411       .  S
C277        C278   1.206       .  T
C279        C331   1.465       .  S
C279        C280   1.207   1_556  T
C281        C282   1.207       .  T
C283        C284   1.206       .  T
C284        C285   1.410       .  S
C285        C286   1.205       .  T
C287        C484   1.465   1_455  S
C287        C288   1.206       .  T
C288        C289   1.410       .  S
C289        C290   1.205       .  T
C291        C292   1.205       .  T
C292        C293   1.410       .  S
C293        C294   1.206       .  T
C295        C296   1.206       .  T
C296        C297   1.412       .  S
C297        C298   1.206       .  T
C299        C300   1.206       .  T
C300        C301   1.412       .  S
C301        C608   1.206   1_455  T
C302        C607   1.206       .  T
C303        C304   1.206       .  T
C304        C305   1.412       .  S
Zn307       O311   1.961       .  S
Zn307       O312   2.015       .  S
Zn307       O316   2.015       .  S
Zn307       O323   2.013       .  S
Zn308       O311   1.961       .  S
Zn308       O313   2.015       .  S
Zn308       O315   2.015       .  S
Zn308       O319   2.013       .  S
Zn309       O311   1.961       .  S
Zn309       O314   2.015       .  S
Zn309       O317   2.015       .  S
Zn309       O320   2.013       .  S
Zn310       O311   1.968       .  S
Zn310       O318   2.023       .  S
Zn310       O321   2.023       .  S
Zn310       O322   2.023       .  S
O312        C324   1.271       .  A
O313        C325   1.271       .  A
O314        C326   1.271       .  A
O315        C324   1.271       .  A
O316        C326   1.271       .  A
O317        C325   1.271       .  A
O318        C327   1.272       .  A
O319        C328   1.272       .  A
O320        C327   1.272       .  A
O321        C328   1.272       .  A
O322        C329   1.272       .  A
O323        C329   1.272       .  A
C324        C444   1.434       .  S
C325        C443   1.434       .  S
C326        C439   1.434       .  S
C327        C448   1.435       .  S
C328        C459   1.435       .  S
C329        C455   1.435       .  S
C330        C434   1.466       .  S
C330        C451   1.466       .  S
C330        C452   1.466       .  S
C330        C456   1.466       .  S
C331        C589   1.465       .  S
C331        C447   1.465   1_565  S
Zn332       O489   1.961   1_545  S
Zn332       O337   2.014       .  S
Zn332       O494   2.016   1_545  S
Zn332       O348   2.016       .  S
Zn333       O336   1.969       .  S
Zn333       O493   2.023       .  S
Zn334       O342   2.014       .  S
Zn334       O345   2.016       .  S
Zn335       O496   2.016   1_545  S
Zn335       O346   2.014       .  S
O336       Zn485   1.961       .  S
O337        C349   1.272       .  A
O338        C350   1.272       .  A
O339        C351   1.272       .  A
O340       Zn486   2.023   1_545  S
O340        C349   1.272       .  A
O341       Zn485   2.016       .  S
O341        C351   1.272       .  A
O342        C350   1.272       .  A
O343       Zn488   2.016       .  S
O343        C352   1.272       .  A
O344        C353   1.272       .  A
O345        C352   1.272       .  A
O346        C353   1.272       .  A
O347        C354   1.272       .  A
O348        C354   1.272       .  A
C349        C411   1.435       .  S
C350        C412   1.435       .  S
C351        C428   1.434       .  S
C352        C423   1.434       .  S
C353        C416   1.435       .  S
C354        C427   1.434       .  S
C355        C406   1.466       .  S
C355        C408   1.467       .  S
C355        C415   1.467       .  S
C355        C419   1.467       .  S
C356        C420   1.466       .  S
C356        C424   1.466       .  S
C356        C431   1.466       .  S
C356        C435   1.465       .  S
Zn357       O361   1.961       .  S
Zn357       O362   2.016       .  S
Zn357       O366   2.016       .  S
Zn357       O373   2.013       .  S
Zn358       O361   1.961       .  S
Zn358       O363   2.016       .  S
Zn358       O365   2.016       .  S
Zn358       O369   2.013       .  S
Zn359       O361   1.961       .  S
Zn359       O364   2.016       .  S
Zn359       O367   2.016       .  S
Zn359       O370   2.013       .  S
Zn360       O361   1.969       .  S
Zn360       O368   2.023       .  S
Zn360       O371   2.023       .  S
Zn360       O372   2.023       .  S
O362        C374   1.272       .  A
O363        C375   1.272       .  A
O364        C376   1.272       .  A
O365        C374   1.272       .  A
O366        C376   1.272       .  A
O367        C375   1.272       .  A
O368        C377   1.272       .  A
O369        C378   1.272       .  A
O370        C377   1.272       .  A
O371        C378   1.272       .  A
O372        C379   1.272       .  A
O373        C379   1.272       .  A
C374        C390   1.434       .  S
C375        C389   1.434       .  S
C376        C382   1.434       .  S
C377        C394   1.435       .  S
C378        C405   1.435       .  S
C379        C401   1.435       .  S
C380        C539   1.465       .  S
C380        C393   1.465       .  S
C380        C433   1.465       .  S
C381        C397   1.467       .  S
C381        C398   1.466       .  S
C381        C402   1.467       .  S
C381        C407   1.466       .  S
C382        C383   1.205       .  T
C383        C384   1.411       .  S
C384        C385   1.206       .  T
C386        C533   1.465   1_545  S
C386        C387   1.206       .  T
C387        C388   1.411       .  S
C388        C389   1.205       .  T
C390        C391   1.205       .  T
C391        C392   1.411       .  S
C392        C393   1.206       .  T
C394        C395   1.206       .  T
C395        C396   1.412       .  S
C396        C397   1.206       .  T
C398        C399   1.206       .  T
C399        C400   1.412       .  S
C400        C554   1.206   1_545  T
C401        C553   1.206       .  T
C402        C403   1.206       .  T
C403        C404   1.412       .  S
C406        C407   1.207       .  T
C408        C409   1.207       .  T
C409        C410   1.412       .  S
C410        C411   1.206       .  T
C412        C413   1.206       .  T
C413        C414   1.412       .  S
C414        C415   1.206       .  T
C416        C417   1.206       .  T
C417        C418   1.412       .  S
C418        C419   1.206       .  T
C420        C421   1.206       .  T
C421        C422   1.411       .  S
C422        C423   1.205       .  T
C424        C425   1.206       .  T
C425        C426   1.411       .  S
C426        C427   1.205       .  T
C428        C429   1.205       .  T
C429        C430   1.411       .  S
C430        C431   1.206       .  T
C432        C433   1.207   1_556  T
C434        C435   1.207       .  T
C436        C484   1.465       .  S
C436        C437   1.206       .  T
C437        C438   1.410       .  S
C438        C439   1.205       .  T
C440        C441   1.206       .  T
C441        C442   1.410       .  S
C442        C443   1.205       .  T
C444        C445   1.205       .  T
C445        C446   1.410       .  S
C446        C447   1.206       .  T
C448        C449   1.206       .  T
C449        C450   1.412       .  S
C450        C451   1.206       .  T
C452        C453   1.206       .  T
C453        C454   1.412       .  S
C456        C457   1.206       .  T
C457        C458   1.412       .  S
C458        C612   1.206       .  T
C459        C611   1.206   1_545  T
Zn460       O464   1.961       .  S
Zn460       O465   2.015       .  S
Zn460       O469   2.015       .  S
Zn460       O476   2.013       .  S
Zn461       O464   1.961       .  S
Zn461       O466   2.015       .  S
Zn461       O468   2.015       .  S
Zn461       O472   2.013       .  S
Zn462       O464   1.961       .  S
Zn462       O467   2.015       .  S
Zn462       O470   2.015       .  S
Zn462       O473   2.013       .  S
Zn463       O464   1.968       .  S
Zn463       O471   2.023       .  S
Zn463       O474   2.023       .  S
Zn463       O475   2.023       .  S
O465        C477   1.271       .  A
O466        C478   1.271       .  A
O467        C479   1.271       .  A
O468        C477   1.271       .  A
O469        C479   1.271       .  A
O470        C478   1.271       .  A
O471        C480   1.272       .  A
O472        C481   1.272       .  A
O473        C480   1.272       .  A
O474        C481   1.272       .  A
O475        C482   1.272       .  A
O476        C482   1.272       .  A
C477        C597   1.434       .  S
C478        C596   1.434       .  S
C479        C592   1.434       .  S
C480        C601   1.435       .  S
C481        C612   1.435       .  S
C482        C608   1.435       .  S
C483        C587   1.466       .  S
C483        C604   1.466       .  S
C483        C605   1.466       .  S
C483        C609   1.466       .  S
C484        C600   1.465       .  S
Zn485       O490   2.014       .  S
Zn485       O501   2.016       .  S
Zn486       O489   1.969       .  S
Zn487       O495   2.014       .  S
Zn487       O498   2.016       .  S
Zn488       O499   2.014       .  S
O490        C502   1.272       .  A
O491        C503   1.272       .  A
O492        C504   1.272       .  A
O493        C502   1.272       .  A
O494        C504   1.272       .  A
O495        C503   1.272       .  A
O496        C505   1.272       .  A
O497        C506   1.272       .  A
O498        C505   1.272       .  A
O499        C506   1.272       .  A
O500        C507   1.272       .  A
O501        C507   1.272       .  A
C502        C564   1.435       .  S
C503        C565   1.435       .  S
C504        C581   1.434       .  S
C505        C576   1.434       .  S
C506        C569   1.435       .  S
C507        C580   1.434       .  S
C508        C559   1.466       .  S
C508        C561   1.467       .  S
C508        C568   1.467       .  S
C508        C572   1.467       .  S
C509        C573   1.466       .  S
C509        C577   1.466       .  S
C509        C584   1.466       .  S
C509        C588   1.465       .  S
Zn510       O514   1.961       .  S
Zn510       O515   2.016       .  S
Zn510       O519   2.016       .  S
Zn510       O526   2.013       .  S
Zn511       O514   1.961       .  S
Zn511       O516   2.016       .  S
Zn511       O518   2.016       .  S
Zn511       O522   2.013       .  S
Zn512       O514   1.961       .  S
Zn512       O517   2.016       .  S
Zn512       O520   2.016       .  S
Zn512       O523   2.013       .  S
Zn513       O514   1.969       .  S
Zn513       O521   2.023       .  S
Zn513       O524   2.023       .  S
Zn513       O525   2.023       .  S
O515        C527   1.272       .  A
O516        C528   1.272       .  A
O517        C529   1.272       .  A
O518        C527   1.272       .  A
O519        C529   1.272       .  A
O520        C528   1.272       .  A
O521        C530   1.272       .  A
O522        C531   1.272       .  A
O523        C530   1.272       .  A
O524        C531   1.272       .  A
O525        C532   1.272       .  A
O526        C532   1.272       .  A
C527        C543   1.434       .  S
C528        C542   1.434       .  S
C529        C535   1.434       .  S
C530        C547   1.435       .  S
C531        C558   1.435       .  S
C532        C554   1.435       .  S
C533        C546   1.465       .  S
C533        C586   1.465       .  S
C534        C550   1.467       .  S
C534        C551   1.466       .  S
C534        C555   1.466       .  S
C534        C560   1.466       .  S
C535        C536   1.205       .  T
C536        C537   1.411       .  S
C537        C538   1.206       .  T
C539        C540   1.206       .  T
C540        C541   1.411       .  S
C541        C542   1.205       .  T
C543        C544   1.205       .  T
C544        C545   1.411       .  S
C545        C546   1.206       .  T
C547        C548   1.206       .  T
C548        C549   1.412       .  S
C549        C550   1.206       .  T
C551        C552   1.206       .  T
C552        C553   1.412       .  S
C555        C556   1.206       .  T
C556        C557   1.412       .  S
C559        C560   1.207       .  T
C561        C562   1.206       .  T
C562        C563   1.412       .  S
C563        C564   1.206       .  T
C565        C566   1.206       .  T
C566        C567   1.412       .  S
C567        C568   1.206       .  T
C569        C570   1.206       .  T
C570        C571   1.412       .  S
C571        C572   1.207       .  T
C573        C574   1.206       .  T
C574        C575   1.411       .  S
C575        C576   1.205       .  T
C577        C578   1.206       .  T
C578        C579   1.411       .  S
C579        C580   1.205       .  T
C581        C582   1.205       .  T
C582        C583   1.411       .  S
C583        C584   1.206       .  T
C585        C586   1.207   1_556  T
C587        C588   1.207       .  T
C589        C590   1.206       .  T
C590        C591   1.410       .  S
C591        C592   1.205       .  T
C593        C594   1.206       .  T
C594        C595   1.410       .  S
C595        C596   1.205       .  T
C597        C598   1.205       .  T
C598        C599   1.410       .  S
C599        C600   1.206       .  T
C601        C602   1.206       .  T
C602        C603   1.412       .  S
C603        C604   1.206       .  T
C605        C606   1.206       .  T
C606        C607   1.412       .  S
C609        C610   1.206       .  T
C610        C611   1.412       .  S
