geometry optimzed in LAMMPS
_audit_creation_date              2020-11-30 
_audit_creation_method            'lammps2cif' 
_symmetry_space_group_name_H-M    'P1' 
_symmetry_Int_Tables_number       1 
_symmetry_cell_setting            triclinic 
loop_ 
_symmetry_equiv_pos_as_xyz 
  x,y,z 
_cell_length_a                    64.83629154 
_cell_length_b                    64.67822709218404 
_cell_length_c                    41.06365561334899 
_cell_angle_alpha                 89.79972023513263 
_cell_angle_beta                  89.91437228139513 
_cell_angle_gamma                 90.05635171368628 
loop_ 
_atom_site_label 
_atom_site_type_symbol 
_atom_site_fract_x 
_atom_site_fract_y 
_atom_site_fract_z 
_atom_site_charge 
O1          O  0.87722781  0.36899877  0.69216589    -0.56600
C2          C  0.86844587  0.41103257  0.75320892     0.76000
O3          O  0.87716514  0.35481607  0.80887781    -0.57800
C4          C  0.86905858  0.35170236  0.68621221     0.76000
C5          C  0.92067795  0.36077205  0.75504699     0.78400
Cd6        Cd  0.87713479  0.36737378  0.75162134     1.37500
O7          O  0.85514946  0.39792547  0.74402246    -0.56600
O8          O  0.90805481  0.34577214  0.75527855    -0.55400
C9          C  0.85784096  0.35322690  0.81185863     0.78300
O10         O  0.91293797  0.37866971  0.75361043    -0.57800
O11         O  0.88556679  0.40380063  0.76237686    -0.56200
O12         O  0.86351142  0.34129379  0.71092287    -0.56200
O13         O  0.84748863  0.35669152  0.78626536    -0.55400
O14         O  0.12450621  0.36712672  0.68709495    -0.56600
C15         C  0.11679074  0.41181438  0.73421750     0.76000
O16         O  0.08524362  0.34870850  0.73463588    -0.57800
C17         C  0.12693583  0.34786294  0.68395099     0.76000
C18         C  0.14165604  0.35938216  0.80297958     0.78400
Cd19       Cd  0.11717522  0.36754652  0.74510448     1.37500
O20         O  0.13241264  0.40122098  0.72628129    -0.56600
O21         O  0.14735370  0.37142143  0.78037760    -0.55400
C22         C  0.07432335  0.35810515  0.75541279     0.78300
O23         O  0.12543709  0.34915820  0.79754290    -0.57800
O24         O  0.10179241  0.40184449  0.74627245    -0.56200
O25         O  0.12614249  0.33724858  0.70991178    -0.56200
O26         O  0.08344705  0.37172947  0.77208358    -0.55400
O27         O  0.87004674  0.60921767  0.78651922    -0.56600
C28         C  0.91356891  0.61506244  0.73428031     0.76000
O29         O  0.87662569  0.57092262  0.71197365    -0.57800
C30         C  0.85268921  0.61755383  0.79128964     0.76000
C31         C  0.85684776  0.62571166  0.66715570     0.78400
Cd32       Cd  0.86965801  0.60708427  0.72801102     1.37500
O33         O  0.90075513  0.62946301  0.73908583    -0.56600
O34         O  0.85728770  0.60633130  0.67056139    -0.55400
C35         C  0.86069804  0.56355236  0.72558321     0.78300
O36         O  0.86084748  0.63612398  0.69242206    -0.57800
O37         O  0.90594382  0.59782639  0.72621932    -0.56200
O38         O  0.84234733  0.62175030  0.76589348    -0.56200
O39         O  0.84878373  0.57640926  0.73921689    -0.55400
O40         O  0.12747175  0.57718690  0.75229639    -0.56600
C41         C  0.12554563  0.63180842  0.68902379     0.76000
O42         O  0.07936783  0.62927609  0.73896150    -0.57800
C43         C  0.11349995  0.56751561  0.73705690     0.76000
C44         C  0.13149192  0.62325326  0.80944753     0.78400
Cd45       Cd  0.11189868  0.61135097  0.74826443     1.37500
O46         O  0.12933222  0.61288754  0.69379416    -0.56600
O47         O  0.14165054  0.61725256  0.78488756    -0.55400
C48         C  0.06834146  0.61658247  0.75490019     0.78300
O49         O  0.11230537  0.62511526  0.80523273    -0.57800
O50         O  0.11711729  0.64123003  0.71250594    -0.56200
O51         O  0.09885467  0.57833326  0.72607104    -0.56200
O52         O  0.07777109  0.60199755  0.76904004    -0.55400
O53         O  0.37199997  0.84488626  0.32060120    -0.56600
C54         C  0.41735839  0.85090054  0.27782622     0.76000
O55         O  0.37518030  0.85743731  0.20519170    -0.57800
C56         C  0.35256964  0.84393149  0.32274873     0.76000
C57         C  0.36568272  0.90030292  0.25732334     0.78400
Cd58       Cd  0.37432001  0.85708184  0.26480592     1.37500
O59         O  0.40648769  0.83741026  0.26355425    -0.56600
O60         O  0.38329997  0.89249848  0.25276183    -0.55400
C61         C  0.36909578  0.83912907  0.20093493     0.78300
O62         O  0.35151144  0.88804672  0.26619470    -0.57800
O63         O  0.40799554  0.86685032  0.28772456    -0.56200
O64         O  0.34268790  0.84752582  0.29673844    -0.56200
O65         O  0.36428620  0.82909469  0.22643605    -0.55400
O66         O  0.34266458  0.12412140  0.20064613    -0.56600
C67         C  0.36000579  0.05466095  0.23912294     0.76000
O68         O  0.39007944  0.12002647  0.23787570    -0.57800
C69         C  0.35086137  0.11587202  0.17592610     0.76000
C70         C  0.33259970  0.11102815  0.29431807     0.78400
Cd71       Cd  0.35869699  0.09895945  0.24064777     1.37500
O72         O  0.34406412  0.06474229  0.23083023    -0.56600
O73         O  0.32711916  0.09645037  0.27579164    -0.55400
C74         C  0.40062393  0.10905706  0.25732509     0.78300
O75         O  0.34888843  0.12050804  0.28618932    -0.57800
O76         O  0.37549223  0.06521941  0.24740049    -0.56200
O77         O  0.36149741  0.09987775  0.18148576    -0.56200
O78         O  0.39137793  0.09391395  0.27023758    -0.55400
O79         O  0.61831567  0.08171066  0.26413431    -0.56600
C80         C  0.61062001  0.13683205  0.20723061     0.76000
O81         O  0.56416500  0.11633946  0.29040534    -0.57800
C82         C  0.60374995  0.06914404  0.25897221     0.76000
C83         C  0.61743274  0.12718073  0.32435451     0.78400
Cd84       Cd  0.59773552  0.11369891  0.26416140     1.37500
O85         O  0.61258700  0.11749369  0.21045552    -0.56600
O86         O  0.62749478  0.12172596  0.29938645    -0.55400
C87         C  0.55390480  0.11888110  0.26445798     0.78300
O88         O  0.59804052  0.12741102  0.32117673    -0.57800
O89         O  0.60390540  0.14637654  0.23193522    -0.56200
O90         O  0.58607623  0.07709436  0.25610125    -0.56200
O91         O  0.56411887  0.11932131  0.23821298    -0.55400
O92         O  0.58525465  0.84665661  0.27288873    -0.56600
C93         C  0.63915254  0.85971632  0.31401953     0.76000
O94         O  0.61653495  0.87161407  0.19920296    -0.57800
C95         C  0.57166610  0.86000110  0.26593269     0.76000
C96         C  0.61949962  0.91436524  0.26043813     0.78400
Cd97       Cd  0.61490240  0.86993968  0.25775440     1.37500
O98         O  0.62000408  0.85631430  0.31209892    -0.56600
O99         O  0.60519334  0.90451669  0.27467360    -0.55400
C100        C  0.62257913  0.85343120  0.19361102     0.78300
O101        O  0.63235575  0.90355315  0.24473375    -0.57800
O102        O  0.64780248  0.86657245  0.28853191    -0.56200
O103        O  0.57832178  0.87720420  0.25554492    -0.56200
O104        O  0.62588855  0.84223685  0.21843345    -0.55400
O105        O  0.85187880  0.70751004  0.36762378    -0.56600
C106        C  0.86360060  0.70249341  0.45393496     0.76000
O107        O  0.90561047  0.75116062  0.39652291    -0.57800
C108        C  0.85292582  0.71657663  0.34034292     0.76000
C109        C  0.85268532  0.76824055  0.43000396     0.78400
Cd110      Cd  0.87157230  0.73178102  0.40078883     1.37500
O111        O  0.84900067  0.71194244  0.44000511    -0.56600
O112        O  0.86801905  0.75889665  0.44204342    -0.55400
C113        C  0.91629617  0.73541180  0.38946323     0.78300
O114        O  0.84675105  0.76178497  0.40246343    -0.57800
O115        O  0.88139058  0.70587659  0.44233426    -0.56200
O116        O  0.86277296  0.73352416  0.34023655    -0.56200
O117        O  0.90632744  0.71865597  0.38708879    -0.55400
O118        O  0.13491910  0.69301301  0.38146924    -0.56600
C119        C  0.12084154  0.69696523  0.46746577     0.76000
O120        O  0.11671133  0.75193883  0.44589192    -0.57800
C121        C  0.13633406  0.70198257  0.35416843     0.76000
C122        C  0.07156866  0.72442197  0.39583335     0.78400
Cd123      Cd  0.11563828  0.72147063  0.40962427     1.37500
O124        O  0.13565635  0.70650821  0.45402415    -0.56600
O125        O  0.07960532  0.70857771  0.40859050    -0.55400
C126        C  0.13356753  0.75956079  0.43598909     0.78300
O127        O  0.08402351  0.73884731  0.38843823    -0.57800
O128        O  0.10366440  0.69790553  0.45303965    -0.56200
O129        O  0.12809396  0.71970723  0.35255017    -0.56200
O130        O  0.14143197  0.75077443  0.41145811    -0.55400
O131        O  0.18768119  0.63103873  0.12763990    -0.56600
C132        C  0.19111012  0.62084601  0.03579146     0.76000
O133        O  0.23662870  0.64829967  0.07800115    -0.57800
C134        C  0.19845000  0.63528416  0.15237148     0.76000
C135        C  0.22399049  0.57265215  0.10292588     0.78400
Cd136      Cd  0.21646772  0.61694400  0.09355952     1.37500
O137        O  0.20321489  0.63473959  0.04582468    -0.56600
O138        O  0.20952984  0.58042478  0.08631243    -0.55400
C139        C  0.25053777  0.63901247  0.06219624     0.78300
O140        O  0.23579412  0.58555567  0.11683438    -0.57800
O141        O  0.18900589  0.60529588  0.05431533    -0.56200
O142        O  0.21736970  0.63062800  0.15021985    -0.56200
O143        O  0.25010733  0.61944716  0.06408785    -0.55400
O144        O  0.19666745  0.35428214  0.12049882    -0.56600
C145        C  0.20786188  0.36897532  0.02551133     0.76000
O146        O  0.24112851  0.40440863  0.10850513    -0.57800
C147        C  0.20592765  0.35037676  0.14694270     0.76000
C148        C  0.25997813  0.34595648  0.06923718     0.78400
Cd149      Cd  0.22540628  0.37112917  0.09054637     1.37500
O150        O  0.19755068  0.36455608  0.05088381    -0.56600
O151        O  0.24186629  0.33926420  0.07397234    -0.55400
C152        C  0.22535325  0.41559430  0.10362457     0.78300
O153        O  0.26328029  0.36443974  0.07818191    -0.57800
O154        O  0.22614123  0.37501686  0.03023827    -0.56200
O155        O  0.22464200  0.35605367  0.14792056    -0.56200
O156        O  0.20947583  0.40617065  0.09377368    -0.55400
O157        O  0.80613009  0.63687079  0.11889477    -0.56600
C158        C  0.79784772  0.62129384  0.02101563     0.76000
O159        O  0.75728899  0.59176448  0.10275763    -0.57800
C160        C  0.79462994  0.64386319  0.14124452     0.76000
C161        C  0.74506930  0.64856041  0.05285067     0.78400
Cd162      Cd  0.77713012  0.62351702  0.08313646     1.37500
O163        O  0.78301628  0.60944718  0.02832078    -0.56600
O164        O  0.74066909  0.63232855  0.06892802    -0.55400
C165        C  0.77243484  0.57960451  0.09875115     0.78300
O166        O  0.76382268  0.65383244  0.05309646    -0.57800
O167        O  0.80399992  0.63328926  0.04341036    -0.56200
O168        O  0.77545946  0.64133515  0.13674791    -0.56200
O169        O  0.78915631  0.58802320  0.08985489    -0.55400
O170        O  0.79914427  0.36060759  0.11965149    -0.56600
C171        C  0.79482234  0.36812398  0.03333743     0.76000
O172        O  0.74444267  0.36677799  0.04775904    -0.57800
C173        C  0.78921592  0.35695153  0.14556179     0.76000
C174        C  0.76560109  0.42242991  0.09873999     0.78400
Cd175      Cd  0.76960984  0.37717761  0.08920866     1.37500
O176        O  0.78826704  0.35419563  0.05236130    -0.56600
O177        O  0.78228906  0.41246265  0.10135983    -0.55400
C178        C  0.73290772  0.35536358  0.06497583     0.78300
O179        O  0.74983947  0.41150475  0.09275403    -0.57800
O180        O  0.79081452  0.38661138  0.04112348    -0.56200
O181        O  0.77067241  0.36321771  0.14569350    -0.56200
O182        O  0.73711894  0.35504292  0.09512799    -0.55400
O183        O  0.85382501  0.29434497  0.37053265    -0.56600
C184        C  0.87149403  0.28976246  0.46055359     0.76000
O185        O  0.83890269  0.25019201  0.42427678    -0.57800
C186        C  0.85077077  0.28485770  0.34416012     0.76000
C187        C  0.91491870  0.25936040  0.38805295     0.78400
Cd188      Cd  0.87063840  0.26530642  0.40137702     1.37500
O189        O  0.86468740  0.29750445  0.43440501    -0.56600
O190        O  0.90637479  0.27686835  0.39014069    -0.55400
C191        C  0.84475121  0.23170196  0.42826823     0.78300
O192        O  0.90292026  0.24397380  0.39037018    -0.57800
O193        O  0.87830694  0.27150865  0.45848679    -0.56200
O194        O  0.85675002  0.26615447  0.34396551    -0.56200
O195        O  0.86252006  0.22767855  0.41714334    -0.55400
O196        O  0.12293903  0.29453519  0.36124438    -0.56600
C197        C  0.11749091  0.29067819  0.45804837     0.76000
O198        O  0.08369096  0.24442739  0.38439436    -0.57800
C199        C  0.13289513  0.28402685  0.34066977     0.76000
C200        C  0.13913896  0.23357514  0.43519307     0.78400
Cd201      Cd  0.11557772  0.26540654  0.40077844     1.37500
O202        O  0.10244425  0.27861515  0.45301412    -0.56600
O203        O  0.14139806  0.25268211  0.43975490    -0.55400
C204        C  0.07142547  0.25913044  0.39092297     0.78300
O205        O  0.12687971  0.22849234  0.41247940    -0.57800
O206        O  0.13075307  0.29216835  0.43540089    -0.56200
O207        O  0.13488930  0.26503726  0.34773203    -0.56200
O208        O  0.07980993  0.27560038  0.40073258    -0.55400
O209        O  0.69459314  0.85721918  0.62602999    -0.56600
C210        C  0.69851745  0.86636274  0.53777543     0.76000
O211        O  0.73986600  0.90926586  0.60724465    -0.57800
C212        C  0.70399999  0.85590026  0.65286525     0.76000
C213        C  0.76052724  0.85646329  0.57067971     0.78400
Cd214      Cd  0.72224873  0.87530283  0.59563797     1.37500
O215        O  0.69568839  0.88308791  0.55297210    -0.56600
O216        O  0.75140280  0.84881139  0.59525248    -0.55400
C217        C  0.72363106  0.92020553  0.60734124     0.78300
O218        O  0.75325077  0.87348575  0.56050104    -0.57800
O219        O  0.71112274  0.85381130  0.55035131    -0.56200
O220        O  0.72209028  0.86335194  0.65320141    -0.56200
O221        O  0.70701524  0.91043454  0.60286140    -0.55400
O222        O  0.68751473  0.13780688  0.63134975    -0.56600
C223        C  0.68658728  0.13003345  0.54369987     0.76000
O224        O  0.74325380  0.12454502  0.55757158    -0.57800
C225        C  0.69767273  0.14023210  0.65733295     0.76000
C226        C  0.72023895  0.07721434  0.60670962     0.78400
Cd227      Cd  0.71482223  0.12200159  0.59773901     1.37500
O228        O  0.68330996  0.11515375  0.56318300    -0.56600
O229        O  0.70700965  0.08547254  0.58827535    -0.55400
C230        C  0.75102477  0.14138957  0.56723114     0.78300
O231        O  0.73162712  0.08973676  0.62209230    -0.57800
O232        O  0.70151481  0.14174150  0.55100510    -0.56200
O233        O  0.71628521  0.13441793  0.65611831    -0.56200
O234        O  0.74335756  0.14863552  0.59317743    -0.55400
O235        O  0.62803988  0.19286687  0.88284888    -0.56600
C236        C  0.61665629  0.19700096  0.98000951     0.76000
O237        O  0.64497495  0.23603890  0.94547476    -0.57800
C238        C  0.63217147  0.20396904  0.85824778     0.76000
C239        C  0.57042904  0.22189326  0.90670822     0.78400
Cd240      Cd  0.61494676  0.22004222  0.91928883     1.37500
O241        O  0.62983400  0.19348065  0.95790482    -0.56600
O242        O  0.57998522  0.20487439  0.90834217    -0.55400
C243        C  0.63901686  0.25463821  0.94611899     0.78300
O244        O  0.58146416  0.23795293  0.91018453    -0.57800
O245        O  0.60269268  0.20987360  0.97283626    -0.56200
O246        O  0.62871281  0.22312141  0.86160061    -0.56200
O247        O  0.62199607  0.25814009  0.93191428    -0.55400
O248        O  0.35170783  0.18817293  0.93721242    -0.56600
C249        C  0.35267251  0.19752533  0.84323155     0.76000
O250        O  0.36168015  0.25182115  0.91651898    -0.57800
C251        C  0.36536759  0.18671511  0.95918046     0.76000
C252        C  0.41441132  0.21954530  0.89985963     0.78400
Cd253      Cd  0.36995198  0.21415562  0.90480790     1.37500
O254        O  0.36437192  0.18706733  0.86149161    -0.56600
O255        O  0.40597945  0.20272766  0.90815184    -0.55400
C256        C  0.34897534  0.24784345  0.93926920     0.78300
O257        O  0.40223730  0.23407912  0.89197557    -0.57800
O258        O  0.34920993  0.21580046  0.85282942    -0.56200
O259        O  0.38159279  0.19727068  0.95501796    -0.56200
O260        O  0.34526332  0.22893668  0.94404877    -0.55400
O261        O  0.62543992  0.80054173  0.94343474    -0.56600
C262        C  0.63575031  0.78908658  0.84918816     0.76000
O263        O  0.64508877  0.75888357  0.93906778    -0.57800
C264        C  0.61422592  0.79545945  0.96748405     0.76000
C265        C  0.57220728  0.76640962  0.89462200     0.78400
Cd266      Cd  0.61606540  0.77152765  0.90760439     1.37500
O267        O  0.63036068  0.79970367  0.87357201    -0.56600
O268        O  0.58143627  0.78364081  0.89357238    -0.55400
C269        C  0.64347319  0.73978764  0.93328230     0.78300
O270        O  0.58351464  0.75082756  0.90026156    -0.57800
O271        O  0.63175515  0.76995446  0.85112590    -0.56200
O272        O  0.60290074  0.77973160  0.96342253    -0.56200
O273        O  0.62925858  0.73472674  0.91365644    -0.55400
O274        O  0.37520153  0.76031352  0.97061265    -0.56600
C275        C  0.35271961  0.78449898  0.85672047     0.76000
O276        O  0.40511526  0.74963197  0.88852071    -0.57800
C277        C  0.36801619  0.77808925  0.97612982     0.76000
C278        C  0.34787410  0.72519043  0.92748326     0.78400
Cd279      Cd  0.37167133  0.76211022  0.91156861     1.37500
O280        O  0.35323272  0.79212516  0.88506969    -0.56600
O281        O  0.33973341  0.74190247  0.91790747    -0.55400
C282        C  0.41624449  0.76312299  0.90243842     0.78300
O283        O  0.36737647  0.72453103  0.92628004    -0.57800
O284        O  0.36113734  0.76689132  0.85379638    -0.56200
O285        O  0.36246429  0.78851705  0.95142704    -0.56200
O286        O  0.40668300  0.77633189  0.91923969    -0.55400
O287        O  0.26429538  0.85008058  0.65606640    -0.56600
C288        C  0.28600508  0.85635435  0.54258306     0.76000
O289        O  0.22518358  0.86505070  0.58561464    -0.57800
C290        C  0.28349264  0.85199888  0.66114122     0.76000
C291        C  0.26133306  0.91162346  0.60456071     0.78400
Cd292      Cd  0.26340864  0.86665945  0.60090712     1.37500
O293        O  0.28820702  0.84540049  0.56794323    -0.56600
O294        O  0.27411856  0.90227740  0.58661371    -0.55400
C295        C  0.22592685  0.84613307  0.57785551     0.78300
O296        O  0.24956842  0.90020339  0.62163271    -0.57800
O297        O  0.27421563  0.87180919  0.54522496    -0.56200
O298        O  0.29340327  0.86134239  0.63898231    -0.56200
O299        O  0.24271952  0.83710736  0.58427024    -0.55400
O300        O  0.29172513  0.12972916  0.62016986    -0.56600
C301        C  0.28222766  0.11368080  0.52477663     0.76000
O302        O  0.24442459  0.07984476  0.60588247    -0.57800
C303        C  0.28212158  0.13276908  0.64661623     0.76000
C304        C  0.22967693  0.13854624  0.56861848     0.78400
Cd305      Cd  0.26358293  0.11241645  0.58943736     1.37500
O306        O  0.29361140  0.11592273  0.54959996    -0.56600
O307        O  0.24772264  0.14514124  0.57415873    -0.55400
C308        C  0.25992220  0.06813433  0.60243708     0.78300
O309        O  0.22643938  0.11970689  0.57561087    -0.57800
O310        O  0.26342319  0.11007437  0.53043865    -0.56200
O311        O  0.26369522  0.12622796  0.64718039    -0.56200
O312        O  0.27651318  0.07707271  0.59427531    -0.55400
C313        C  0.26799107  0.96890792  0.58381015    -0.13200
C314        C  0.26072096  0.97838234  0.61221472     0.17200
C315        C  0.25266729  0.96576500  0.63739572     0.03500
C316        C  0.25254369  0.94414915  0.63402298    -0.11700
C317        C  0.26052031  0.93462386  0.60601762    -0.02700
C318        C  0.26808478  0.94735608  0.58053093     0.02800
C319        C  0.26068625  0.00141709  0.61357669     0.09600
N320        N  0.24539865  0.97442767  0.66721056     0.66000
H321        H  0.24672058  0.93479845  0.65382690     0.18900
N322        N  0.27555265  0.93887686  0.55070149     0.76400
H323        H  0.27346678  0.97831443  0.56383272     0.10400
C324        C  0.27900075  0.01300384  0.60962539     0.04100
C325        C  0.27815276  0.03453960  0.60680046    -0.04600
C326        C  0.25930935  0.04524187  0.60730666    -0.23000
C327        C  0.24091383  0.03364279  0.61137576     0.13300
C328        C  0.24180525  0.01198583  0.61463649    -0.12200
N329        N  0.29875014  0.00326508  0.60835434     0.65000
H330        H  0.29248021  0.04286398  0.60379404     0.12900
N331        N  0.22110815  0.04326231  0.61104886     0.61600
H332        H  0.22760983  0.00333073  0.61666407     0.09000
O333        O  0.29477740  0.93795029  0.54614426    -0.39800
O334        O  0.26371497  0.93856268  0.52634003    -0.39000
O335        O  0.22621594  0.97522478  0.67227223    -0.39000
O336        O  0.25748179  0.97497769  0.69125261    -0.36700
O337        O  0.21096857  0.04347405  0.58483831    -0.37600
O338        O  0.21161224  0.04543325  0.63765457    -0.33800
O339        O  0.30747319  0.00122393  0.58105948    -0.35200
O340        O  0.30968054  0.00306990  0.63374622    -0.39500
C341        C  0.32116338  0.82202936  0.80356455    -0.13200
C342        C  0.32245761  0.81244165  0.77310098     0.17200
C343        C  0.33447584  0.79439067  0.77008240     0.03500
C344        C  0.34434394  0.78594618  0.79744902    -0.11700
C345        C  0.34271088  0.79513390  0.82834681    -0.02700
C346        C  0.33111521  0.81367381  0.83103722     0.02800
C347        C  0.31229157  0.82238997  0.74458088     0.09600
N348        N  0.33669726  0.78416305  0.73953171     0.66000
H349        H  0.35321360  0.77195890  0.79438834     0.18900
N350        N  0.32876162  0.82413998  0.86136688     0.76400
H351        H  0.31237234  0.83612727  0.80604398     0.10400
C352        C  0.29114090  0.81970703  0.73784021     0.04100
C353        C  0.28211251  0.82982377  0.71110283    -0.04600
C354        C  0.29367098  0.84302951  0.69075308    -0.23000
C355        C  0.31471683  0.84642443  0.69862333     0.13300
C356        C  0.32376352  0.83601795  0.72511617    -0.12200
N357        N  0.27849365  0.80675357  0.75780252     0.65000
H358        H  0.26602080  0.82707778  0.70611078     0.12900
N359        N  0.32721809  0.86061156  0.68060712     0.61600
H360        H  0.33978174  0.83876625  0.73072045     0.09000
O361        O  0.31211150  0.82189958  0.87693251    -0.39800
O362        O  0.33977663  0.83983278  0.86691208    -0.39000
O363        O  0.35337506  0.78624413  0.72397746    -0.39000
O364        O  0.32536258  0.76876440  0.73361629    -0.36700
O365        O  0.33004075  0.87851015  0.69191876    -0.37600
O366        O  0.33998777  0.85355258  0.66028664    -0.33800
O367        O  0.26642386  0.81505631  0.77802551    -0.35200
O368        O  0.27505566  0.78843789  0.74882934    -0.39500
C369        C  0.51651010  0.74658467  0.88899318    -0.13200
C370        C  0.50552763  0.76521836  0.88674033     0.17200
C371        C  0.51673930  0.78397631  0.88570500     0.03500
C372        C  0.53830259  0.78378219  0.88762390    -0.11700
C373        C  0.54936504  0.76517686  0.89049036    -0.02700
C374        C  0.53816205  0.74638020  0.89060404     0.02800
C375        C  0.48257113  0.76480838  0.88946726     0.09600
N376        N  0.50663029  0.80349015  0.88228062     0.66000
H377        H  0.54632075  0.79836022  0.88720815     0.18900
N378        N  0.54829475  0.72682802  0.89205096     0.76400
H379        H  0.50828982  0.73216697  0.89047278     0.10400
C380        C  0.46986957  0.75274766  0.86893044     0.04100
C381        C  0.44843141  0.75228590  0.87382154    -0.04600
C382        C  0.43913056  0.76355885  0.89903708    -0.23000
C383        C  0.45197349  0.77504091  0.92023582     0.13300
C384        C  0.47334698  0.77552878  0.91525302    -0.12200
N385        N  0.47824785  0.74120344  0.84245403     0.65000
H386        H  0.43904401  0.74327491  0.85748142     0.12900
N387        N  0.44386987  0.78583040  0.94770703     0.61600
H388        H  0.48282885  0.78396051  0.93217794     0.09000
O389        O  0.55035272  0.71666186  0.86608349    -0.39800
O390        O  0.54920773  0.71742135  0.91897917    -0.39000
O391        O  0.50539129  0.81519299  0.90673401    -0.39000
O392        O  0.50519408  0.81134739  0.85421059    -0.36700
O393        O  0.44456811  0.77723978  0.97532651    -0.37600
O394        O  0.44222594  0.80524406  0.94615895    -0.33800
O395        O  0.47932542  0.72178384  0.84501546    -0.35200
O396        O  0.47819011  0.74922338  0.81440489    -0.39500
C397        C  0.29209151  0.15946841  0.72885580    -0.13200
C398        C  0.31311062  0.16440858  0.72635156     0.17200
C399        C  0.32379872  0.15843304  0.69781418     0.03500
C400        C  0.31332907  0.14830819  0.67253212    -0.11700
C401        C  0.29222794  0.14342447  0.67484194    -0.02700
C402        C  0.28165768  0.14904988  0.70374375     0.02800
C403        C  0.32380350  0.17379087  0.75508387     0.09600
N404        N  0.34529583  0.16257905  0.69369362     0.66000
H405        H  0.32192959  0.14414599  0.65100040     0.18900
N406        N  0.26036160  0.14431705  0.70848450     0.76400
H407        H  0.28379790  0.16319463  0.75086360     0.10400
C408        C  0.31746842  0.19265715  0.76932840     0.04100
C409        C  0.32729949  0.20008892  0.79748056    -0.04600
C410        C  0.34321276  0.18894249  0.81276158    -0.23000
C411        C  0.34921355  0.16982629  0.79878136     0.13300
C412        C  0.33962851  0.16261315  0.77029371    -0.12200
N413        N  0.30113030  0.20466999  0.75567378     0.65000
H414        H  0.32216989  0.21455071  0.80764994     0.12900
N415        N  0.36500596  0.15731926  0.81285718     0.61600
H416        H  0.34423856  0.14787598  0.76052925     0.09000
O417        O  0.24730065  0.15863453  0.70539558    -0.39800
O418        O  0.25562587  0.12854863  0.72507561    -0.39000
O419        O  0.35793828  0.14792135  0.69725241    -0.39000
O420        O  0.35063211  0.17808839  0.67696053    -0.36700
O421        O  0.35980371  0.14206911  0.83028666    -0.37600
O422        O  0.38264236  0.15738390  0.79983062    -0.33800
O423        O  0.28357960  0.20393984  0.76896519    -0.35200
O424        O  0.30567743  0.22016661  0.73834385    -0.39500
C425        C  0.51386816  0.20838742  0.88910590    -0.13200
C426        C  0.50389011  0.22704314  0.89660606     0.17200
C427        C  0.51605264  0.24397023  0.90673227     0.03500
C428        C  0.53761653  0.24202366  0.90855566    -0.11700
C429        C  0.54758770  0.22319392  0.90189441    -0.02700
C430        C  0.53530735  0.20616301  0.89216893     0.02800
C431        C  0.48085132  0.22691497  0.89812265     0.09600
N432        N  0.50690372  0.26266875  0.91812073     0.66000
H433        H  0.54648130  0.25512945  0.91680153     0.18900
N434        N  0.54402465  0.18629273  0.88589973     0.76400
H435        H  0.50480906  0.19512330  0.88198784     0.10400
C436        C  0.46805027  0.23908415  0.87779650     0.04100
C437        C  0.44646735  0.23675950  0.87919536    -0.04600
C438        C  0.43724501  0.22197451  0.89970377    -0.23000
C439        C  0.45012405  0.20970813  0.91972339     0.13300
C440        C  0.47152517  0.21246288  0.91900906    -0.12200
N441        N  0.47649374  0.25280855  0.85396287     0.65000
H442        H  0.43696591  0.24605307  0.86332898     0.12900
N443        N  0.44187457  0.19468669  0.94175123     0.61600
H444        H  0.48100395  0.20293556  0.93459670     0.09000
O445        O  0.54631095  0.18066260  0.85673092    -0.39800
O446        O  0.54311367  0.17265646  0.90792126    -0.39000
O447        O  0.50396307  0.26469488  0.94832824    -0.39000
O448        O  0.50849730  0.27872219  0.90076551    -0.36700
O449        O  0.44154330  0.17594976  0.93329095    -0.37600
O450        O  0.44101677  0.19902722  0.97164319    -0.33800
O451        O  0.47816833  0.24649520  0.82503776    -0.35200
O452        O  0.47542488  0.27201109  0.85893465    -0.39500
C453        C  0.68759180  0.15957010  0.74435578    -0.13200
C454        C  0.66671347  0.16507886  0.74246266     0.17200
C455        C  0.65643015  0.16283410  0.71241374     0.03500
C456        C  0.66695371  0.15494706  0.68533255    -0.11700
C457        C  0.68783462  0.14916792  0.68710062    -0.02700
C458        C  0.69820382  0.15171891  0.71720303     0.02800
C459        C  0.65663297  0.17451386  0.77148954     0.19200
N460        N  0.63510818  0.16787465  0.70894752     0.66000
H461        H  0.65854903  0.15320331  0.66283471     0.18900
N462        N  0.71942194  0.14640297  0.72109517     0.76400
H463        H  0.69580586  0.16163605  0.76696125     0.10400
C464        C  0.65432515  0.16362668  0.80111326     0.04100
C465        C  0.64635664  0.17361564  0.82861874    -0.04600
C466        C  0.64062932  0.19458215  0.82775770    -0.23000
C467        C  0.64293679  0.20548463  0.79795073     0.13300
C468        C  0.65084995  0.19539478  0.77032269    -0.12200
N469        N  0.65963170  0.14226456  0.80379219     0.65000
H470        H  0.64473605  0.16479606  0.85083068     0.12900
N471        N  0.63710118  0.22666641  0.79476946     0.61600
H472        H  0.65282356  0.20402824  0.74800102     0.09000
O473        O  0.72385544  0.12984744  0.73583150    -0.39800
O474        O  0.73278481  0.16057024  0.71947519    -0.39000
O475        O  0.63027709  0.18415712  0.69376848    -0.39000
O476        O  0.62196023  0.15355838  0.71144399    -0.36700
O477        O  0.65092915  0.24037795  0.79611701    -0.37600
O478        O  0.62025704  0.23090179  0.78092973    -0.33800
O479        O  0.67592720  0.13735913  0.81868782    -0.35200
O480        O  0.64556231  0.12892367  0.80072627    -0.39500
C481        C  0.66417827  0.79796005  0.76815592    -0.13200
C482        C  0.66755886  0.81937815  0.76909498     0.17200
C483        C  0.65979521  0.83068990  0.79568779     0.03500
C484        C  0.64948149  0.82043444  0.82108686    -0.11700
C485        C  0.64633137  0.79889190  0.82063857    -0.02700
C486        C  0.65367786  0.78766625  0.79340529     0.02800
C487        C  0.67707866  0.82952976  0.74020626     0.09600
N488        N  0.66129682  0.85270507  0.79682935     0.66000
H489        H  0.64376099  0.82951691  0.84110157     0.18900
N490        N  0.65073625  0.76586335  0.79060438     0.76400
H491        H  0.66953451  0.78920643  0.74750878     0.10400
C492        C  0.69726285  0.83772473  0.74030550     0.04100
C493        C  0.70567535  0.84610438  0.71162283    -0.04600
C494        C  0.69441601  0.84641585  0.68236963    -0.23000
C495        C  0.67427014  0.83789201  0.68234520     0.13300
C496        C  0.66590391  0.82960224  0.71103975    -0.12200
N497        N  0.70985720  0.83701155  0.76878133     0.65000
H498        H  0.72109997  0.85225305  0.71232830     0.12900
N499        N  0.66187601  0.83743877  0.65362922     0.61600
H500        H  0.65060724  0.82309027  0.71050842     0.09000
O501        O  0.66563856  0.75402926  0.79711972    -0.39800
O502        O  0.63637367  0.75925508  0.77271697    -0.39000
O503        O  0.64588795  0.86330718  0.78827884    -0.39000
O504        O  0.67446091  0.86076051  0.81548772    -0.36700
O505        O  0.66110117  0.82099561  0.63722246    -0.37600
O506        O  0.64760127  0.85054197  0.65054849    -0.33800
O507        O  0.72306071  0.82278028  0.77131990    -0.35200
O508        O  0.71243835  0.85339344  0.78485170    -0.39500
C509        C  0.70710725  0.97664617  0.61788213    -0.13200
C510        C  0.72521780  0.98719140  0.60938077     0.17200
C511        C  0.74325457  0.97556722  0.60326758     0.03500
C512        C  0.74255500  0.95384180  0.60408829    -0.11700
C513        C  0.72411526  0.94320318  0.61087688    -0.02700
C514        C  0.70635543  0.95497433  0.61867965     0.02800
C515        C  0.72472305  0.01023903  0.60787769     0.09600
N516        N  0.76223460  0.98539249  0.59465457     0.66000
H517        H  0.75634559  0.94531481  0.59818703     0.18900
N518        N  0.68736370  0.94539605  0.62787607     0.76400
H519        H  0.69341177  0.98528970  0.62388528     0.10400
C520        C  0.71137803  0.02081299  0.58639793     0.04100
C521        C  0.71030141  0.04240529  0.58688806    -0.04600
C522        C  0.72204401  0.05419154  0.60880314    -0.23000
C523        C  0.73496469  0.04356264  0.63107475     0.13300
C524        C  0.73631066  0.02182422  0.63018667    -0.12200
N525        N  0.69888185  0.00998681  0.56344369     0.65000
H526        H  0.70016860  0.04992502  0.56972373     0.12900
N527        N  0.74637543  0.05429352  0.65545268     0.61600
H528        H  0.74600508  0.01394857  0.64756803     0.09000
O529        O  0.67293452  0.94469865  0.60732710    -0.39800
O530        O  0.68300149  0.94398338  0.65776400    -0.39000
O531        O  0.77646758  0.98619871  0.61553813    -0.39000
O532        O  0.76680326  0.98719692  0.56490096    -0.36700
O533        O  0.73879076  0.05573805  0.68367702    -0.37600
O534        O  0.76559877  0.05631155  0.65184743    -0.33800
O535        O  0.67991038  0.00775374  0.56943131    -0.35200
O536        O  0.70499419  0.00881275  0.53432626    -0.39500
C537        C  0.18350162  0.15807264  0.51931675    -0.13200
C538        C  0.18943301  0.17861408  0.51359921     0.17200
C539        C  0.20714676  0.18632332  0.52937746     0.03500
C540        C  0.21921179  0.17318642  0.54861797    -0.11700
C541        C  0.21405785  0.15224189  0.55294550    -0.02700
C542        C  0.19549975  0.14489798  0.53889927     0.02800
C543        C  0.17616653  0.19205497  0.49298131     0.09600
N544        N  0.21373621  0.20724096  0.52516075     0.66000
H545        H  0.23308820  0.17936656  0.55932548     0.18900
N546        N  0.18875095  0.12405301  0.54319022     0.76400
H547        H  0.16954336  0.15221601  0.50844557     0.10400
C548        C  0.17327486  0.18849879  0.45932071     0.04100
C549        C  0.16048107  0.20164929  0.44098480    -0.04600
C550        C  0.15046756  0.21841719  0.45562809    -0.23000
C551        C  0.15265826  0.22134027  0.48960000     0.13300
C552        C  0.16545671  0.20826596  0.50781173    -0.12200
N553        N  0.18381258  0.17215454  0.44299877     0.65000
H554        H  0.15898241  0.19918611  0.41510276     0.12900
N555        N  0.14137791  0.23699972  0.50639777     0.61600
H556        H  0.16688256  0.21066790  0.53371551     0.09000
O557        O  0.19156500  0.11138413  0.52032297    -0.39800
O558        O  0.17491009  0.12029772  0.56403443    -0.39000
O559        O  0.21151609  0.21969410  0.54849305    -0.39000
O560        O  0.22698835  0.21123279  0.50349834    -0.36700
O561        O  0.12435803  0.23228055  0.51941325    -0.37600
O562        O  0.15083599  0.25284107  0.51623930    -0.33800
O563        O  0.17386246  0.15613054  0.43529454    -0.35200
O564        O  0.20049050  0.17614521  0.42839321    -0.39500
C565        C  0.82359179  0.18279352  0.47117876    -0.13200
C566        C  0.80483372  0.19027019  0.48346719     0.17200
C567        C  0.79939121  0.21096115  0.47697813     0.03500
C568        C  0.81245367  0.22362750  0.45843919    -0.11700
C569        C  0.83137354  0.21642302  0.44609798    -0.02700
C570        C  0.83691771  0.19558877  0.45283359     0.02800
C571        C  0.79193302  0.17682645  0.50495922     0.09600
N572        N  0.78054192  0.21951410  0.48883060     0.66000
H573        H  0.80771845  0.23940412  0.45411651     0.18900
N574        N  0.85592741  0.18699422  0.44170660     0.76400
H575        H  0.82812430  0.16706464  0.47642192     0.10400
C576        C  0.78016189  0.16023616  0.49272367     0.04100
C577        C  0.76789390  0.14833400  0.51384862    -0.04600
C578        C  0.76686296  0.15258799  0.54739084    -0.23000
C579        C  0.77944709  0.16861777  0.55982129     0.13300
C580        C  0.79175213  0.18052603  0.53860890    -0.12200
N581        N  0.77960719  0.15577875  0.45870874     0.65000
H582        H  0.75844398  0.13626059  0.50357964     0.12900
N583        N  0.78027154  0.17295594  0.59385335     0.61600
H584        H  0.80114778  0.19278369  0.54844633     0.09000
O585        O  0.85559597  0.17511727  0.41740228    -0.39800
O586        O  0.87079345  0.18569307  0.46141339    -0.39000
O587        O  0.78111683  0.23137393  0.51314934    -0.39000
O588        O  0.76531542  0.22052583  0.46979834    -0.36700
O589        O  0.79475348  0.16531444  0.61048539    -0.37600
O590        O  0.77093918  0.18865113  0.60450390    -0.33800
O591        O  0.78942450  0.14031822  0.44827576    -0.35200
O592        O  0.76495782  0.16291909  0.44190293    -0.39500
C593        C  0.01589250  0.24306355  0.36959077    -0.13200
C594        C  0.00463434  0.25941645  0.38343825     0.17200
C595        C  0.01553956  0.27482916  0.40059674     0.03500
C596        C  0.03705112  0.27397591  0.40260909    -0.11700
C597        C  0.04847353  0.25796940  0.38816740    -0.02700
C598        C  0.03755858  0.24216719  0.37176115     0.02800
C599        C  0.98160133  0.25893801  0.38199609     0.09600
N600        N  0.00522244  0.29102274  0.41765904     0.66000
H601        H  0.04481654  0.28599995  0.41610280     0.18900
N602        N  0.04798233  0.22538922  0.35638151     0.76400
H603        H  0.00779150  0.23090576  0.35690169     0.10400
C604        C  0.96980608  0.27452522  0.36662770     0.04100
C605        C  0.94818009  0.27388500  0.36818000    -0.04600
C606        C  0.93771999  0.25758734  0.38377546    -0.23000
C607        C  0.94952439  0.24114897  0.39687687     0.13300
C608        C  0.97118989  0.24210093  0.39616340    -0.12200
N609        N  0.97927477  0.29051407  0.34772098     0.65000
H610        H  0.93950838  0.28621965  0.35692767     0.12900
N611        N  0.94001826  0.22388603  0.41265357     0.61600
H612        H  0.97993329  0.22980317  0.40738621     0.09000
O613        O  0.05053351  0.22599280  0.32592555    -0.39800
O614        O  0.04859632  0.20811661  0.37073625    -0.39000
O615        O  0.00182611  0.28863622  0.44770448    -0.39000
O616        O  0.00663822  0.30918954  0.40659330    -0.36700
O617        O  0.93893948  0.20693716  0.39761373    -0.37600
O618        O  0.93881855  0.22377512  0.44332297    -0.33800
O619        O  0.98168428  0.28755861  0.31759506    -0.35200
O620        O  0.97839669  0.30886268  0.35792569    -0.39500
C621        C  0.69090612  0.31449137  0.04939857    -0.13200
C622        C  0.69009348  0.31469293  0.01523271     0.17200
C623        C  0.70179391  0.32964240  0.99825087     0.03500
C624        C  0.71465721  0.34324847  0.01528294    -0.11700
C625        C  0.71641195  0.34248014  0.04943363    -0.02700
C626        C  0.70381975  0.32816923  0.06658049     0.02800
C627        C  0.67688493  0.29935826  0.99782655     0.09600
N628        N  0.70178703  0.33057907  0.96350101     0.66000
H629        H  0.72392406  0.35398126  0.00133211     0.18900
N630        N  0.70409268  0.32684237  0.10127915     0.76400
H631        H  0.68160504  0.30352063  0.06282127     0.10400
C632        C  0.68079655  0.27793072  0.99953826     0.04100
C633        C  0.66831567  0.26400892  0.98240495    -0.04600
C634        C  0.65146818  0.27073361  0.96354488    -0.23000
C635        C  0.64712152  0.29221116  0.96281291     0.13300
C636        C  0.65989468  0.30621478  0.97961402    -0.12200
N637        N  0.69770996  0.26991789  0.01790035     0.65000
H638        H  0.67193595  0.24773994  0.98403605     0.12900
N639        N  0.63004330  0.30030451  0.94500566     0.61600
H640        H  0.65642934  0.32253864  0.97860082     0.09000
O641        O  0.71332146  0.31185425  0.11452033    -0.39800
O642        O  0.69038311  0.33627131  0.11721912    -0.39000
O643        O  0.69246889  0.34526907  0.94959384    -0.39000
O644        O  0.71565783  0.32103652  0.94809474    -0.36700
O645        O  0.63341861  0.30901889  0.91798220    -0.37600
O646        O  0.61360913  0.30442650  0.96014339    -0.33800
O647        O  0.69412073  0.26121387  0.04487528    -0.35200
O648        O  0.71441509  0.26606656  0.00335095    -0.39500
C649        C  0.82580179  0.32659597  0.20209071    -0.13200
C650        C  0.81304623  0.32296317  0.22915904     0.17200
C651        C  0.79281793  0.33115420  0.22868439     0.03500
C652        C  0.78570930  0.34218530  0.20144054    -0.11700
C653        C  0.79831214  0.34567291  0.17409975    -0.02700
C654        C  0.81874654  0.33779534  0.17482852     0.02800
C655        C  0.82190036  0.31251708  0.25862548     0.09600
N656        N  0.77894635  0.32821059  0.25534526     0.66000
H657        H  0.77013148  0.34795030  0.20179824     0.18900
N658        N  0.83279088  0.34097527  0.14846199     0.76400
H659        H  0.84148141  0.32114410  0.20237286     0.10400
C660        C  0.83066602  0.29248593  0.25772375     0.04100
C661        C  0.83963727  0.28386762  0.28582283    -0.04600
C662        C  0.84085532  0.29495826  0.31513757    -0.23000
C663        C  0.83270245  0.31534514  0.31560161     0.13300
C664        C  0.82318199  0.32368363  0.28775014    -0.12200
N665        N  0.83077226  0.28052650  0.22855841     0.65000
H666        H  0.84594100  0.26847368  0.28442348     0.12900
N667        N  0.83423588  0.32821437  0.34368117     0.61600
H668        H  0.81735646  0.33927976  0.28862586     0.09000
O669        O  0.83594772  0.32629902  0.12892217    -0.39800
O670        O  0.84624218  0.35499595  0.15095107    -0.39000
O671        O  0.77526797  0.34330662  0.27384943    -0.39000
O672        O  0.76593926  0.31372868  0.25375519    -0.36700
O673        O  0.84887135  0.34105360  0.34520917    -0.37600
O674        O  0.81824656  0.33136724  0.36048863    -0.33800
O675        O  0.84734400  0.27920755  0.21253889    -0.35200
O676        O  0.81726638  0.26665766  0.22508122    -0.39500
C677        C  0.67249350  0.69064599  0.95921326    -0.13200
C678        C  0.68267909  0.69776764  0.98714819     0.17200
C679        C  0.68022297  0.71857457  0.99639319     0.03500
C680        C  0.66751634  0.73168516  0.97825871    -0.11700
C681        C  0.65711414  0.72472170  0.95035237    -0.02700
C682        C  0.65985713  0.70391055  0.94069098     0.02800
C683        C  0.69813806  0.68435344  0.00342992     0.09600
N684        N  0.69062380  0.72683349  0.02409456     0.66000
H685        H  0.66578364  0.74744796  0.98632612     0.18900
N686        N  0.65084631  0.69611357  0.91150955     0.76400
H687        H  0.67489801  0.67497384  0.95117560     0.10400
C688        C  0.69272941  0.66795118  0.02452749     0.04100
C689        C  0.70821291  0.65640081  0.04007508    -0.04600
C690        C  0.72921206  0.66069366  0.03474487    -0.23000
C691        C  0.73448237  0.67641377  0.01201409     0.13300
C692        C  0.71899610  0.68811644  0.99699993    -0.12200
N693        N  0.67167340  0.66296751  0.03106946     0.65000
H694        H  0.70373210  0.64423464  0.05665540     0.12900
N695        N  0.75538637  0.68061732  0.00315108     0.61600
H696        H  0.72328897  0.70018270  0.98009094     0.09000
O697        O  0.63518998  0.68459322  0.91365827    -0.39800
O698        O  0.66171108  0.69545162  0.88600588    -0.39000
O699        O  0.70616209  0.73826666  0.01961975    -0.39000
O700        O  0.68097288  0.72800910  0.05072433    -0.36700
O701        O  0.76242853  0.67287108  0.97725146    -0.37600
O702        O  0.76410656  0.69636052  0.01488047    -0.33800
O703        O  0.66377136  0.64753958  0.01707186    -0.35200
O704        O  0.66355976  0.66950713  0.05700350    -0.39500
C705        C  0.75101984  0.48005603  0.09238785    -0.13200
C706        C  0.76885264  0.48948797  0.10482425     0.17200
C707        C  0.78451436  0.47671594  0.11770161     0.03500
C708        C  0.78268584  0.45512021  0.11599514    -0.11700
C709        C  0.76528108  0.44552302  0.10225107    -0.02700
C710        C  0.74901582  0.45837967  0.09111242     0.02800
C711        C  0.77039105  0.51256700  0.10439372     0.09600
N712        N  0.80198687  0.48519864  0.13408142     0.66000
H713        H  0.79507071  0.44580775  0.12567542     0.18900
N714        N  0.73063251  0.44999132  0.07732635     0.76400
H715        H  0.73868580  0.48959003  0.08306368     0.10400
C716        C  0.78485697  0.52313820  0.08469240     0.04100
C717        C  0.78523649  0.54479224  0.08413125    -0.04600
C718        C  0.77107695  0.55662758  0.10207809    -0.23000
C719        C  0.75621136  0.54608823  0.12121298     0.13300
C720        C  0.75608931  0.52429293  0.12230998    -0.12200
N721        N  0.79835317  0.51236514  0.06310313     0.65000
H722        H  0.79632587  0.55235912  0.06850878     0.12900
N723        N  0.74149447  0.55703813  0.14044616     0.61600
H724        H  0.74471645  0.51648658  0.13710687     0.09000
O725        O  0.72858209  0.45030159  0.04677640    -0.39800
O726        O  0.71468804  0.44878682  0.09489904    -0.39000
O727        O  0.80143205  0.48648718  0.16472522    -0.39000
O728        O  0.81932993  0.48454093  0.12017738    -0.36700
O729        O  0.72345787  0.55940693  0.12955987    -0.37600
O730        O  0.74450888  0.55855679  0.17069421    -0.33800
O731        O  0.79280490  0.51006390  0.03389607    -0.35200
O732        O  0.81736054  0.51194348  0.06956436    -0.39500
C733        C  0.30918983  0.32580774  0.02733156    -0.13200
C734        C  0.30135162  0.30825508  0.01157472     0.17200
C735        C  0.28048600  0.30291446  0.01640001     0.03500
C736        C  0.26790581  0.31502093  0.03629162    -0.11700
C737        C  0.27539944  0.33287498  0.05173593    -0.02700
C738        C  0.29644105  0.33817499  0.04718582     0.02800
C739        C  0.31543642  0.29410947  0.99366678     0.09600
N740        N  0.27149404  0.28549050  0.00050953     0.66000
H741        H  0.25194023  0.31059255  0.03878108     0.18900
N742        N  0.30532497  0.35583321  0.06250331     0.76400
H743        H  0.32526495  0.32973341  0.02463290     0.10400
C744        C  0.32467542  0.29914734  0.96345462     0.04100
C745        C  0.33619250  0.28416295  0.94653422    -0.04600
C746        C  0.33873585  0.26411709  0.95923482    -0.23000
C747        C  0.33073319  0.25975771  0.99066687     0.13300
C748        C  0.31921274  0.27464407  0.00731574    -0.12200
N749        N  0.32186128  0.31899593  0.94881416     0.65000
H750        H  0.34248512  0.28800712  0.92292829     0.12900
N751        N  0.33425342  0.24038503  0.00651005     0.61600
H752        H  0.31289988  0.27085155  0.03094145     0.09000
O753        O  0.30850434  0.37184991  0.04559934    -0.39800
O754        O  0.31543944  0.35331572  0.08844716    -0.39000
O755        O  0.26791762  0.26934348  0.01691181    -0.39000
O756        O  0.26174784  0.28839037  0.97431822    -0.36700
O757        O  0.34820780  0.23924874  0.02783652    -0.37600
O758        O  0.31999724  0.22709457  0.00669531    -0.33800
O759        O  0.33660720  0.33173998  0.94930476    -0.35200
O760        O  0.30784414  0.32122507  0.92781942    -0.39500
C761        C  0.14710216  0.32124384  0.27066153    -0.13200
C762        C  0.16116353  0.30929697  0.25283353     0.17200
C763        C  0.16554182  0.28905052  0.26391434     0.03500
C764        C  0.15592570  0.28123037  0.29206144    -0.11700
C765        C  0.14204736  0.29322327  0.31031142    -0.02700
C766        C  0.13763397  0.31353160  0.29909199     0.02800
C767        C  0.17246585  0.31906334  0.22491770     0.09600
N768        N  0.17961900  0.27599152  0.24688856     0.66000
H769        H  0.15962427  0.26574124  0.29983288     0.18900
N770        N  0.12355610  0.32670805  0.31587987     0.76400
H771        H  0.14386225  0.33685539  0.26301150     0.10400
C772        C  0.16223819  0.32719914  0.19733852     0.04100
C773        C  0.17348693  0.33733022  0.17274142    -0.04600
C774        C  0.19502069  0.33983699  0.17469680    -0.23000
C775        C  0.20518450  0.33191243  0.20262556     0.13300
C776        C  0.19389331  0.32172184  0.22720488    -0.12200
N777        N  0.14049077  0.32486517  0.19319175     0.65000
H778        H  0.16520553  0.34319877  0.15190178     0.12900
N779        N  0.22700212  0.33345377  0.20642216     0.61600
H780        H  0.20192627  0.31606204  0.24841693     0.09000
O781        O  0.10574664  0.32924932  0.30419222    -0.39800
O782        O  0.13066960  0.34015502  0.33502722    -0.39000
O783        O  0.19731100  0.27303263  0.25878288    -0.39000
O784        O  0.17249011  0.26296748  0.22705316    -0.36700
O785        O  0.23416922  0.34730611  0.22478725    -0.37600
O786        O  0.23787439  0.31773048  0.20054585    -0.33800
O787        O  0.12900225  0.34034538  0.19760884    -0.35200
O788        O  0.13396023  0.31016454  0.17590441    -0.39500
C789        C  0.32834690  0.68061704  0.98057064    -0.13200
C790        C  0.30723922  0.68065781  0.97309804     0.17200
C791        C  0.30020781  0.69399499  0.94800642     0.03500
C792        C  0.31400548  0.70746029  0.93233523    -0.11700
C793        C  0.33495118  0.70808578  0.94083893    -0.02700
C794        C  0.34217820  0.69403101  0.96472626     0.02800
C795        C  0.29272307  0.66932505  0.99517537     0.09600
N796        N  0.27906444  0.69442308  0.93820085     0.66000
H797        H  0.30813049  0.71788276  0.91404586     0.18900
N798        N  0.36315076  0.69408318  0.97523257     0.76400
H799        H  0.33397232  0.67111496  0.00018379     0.10400
C800        C  0.29507133  0.64819469  0.00352512     0.04100
C801        C  0.28168589  0.63892710  0.02625405    -0.04600
C802        C  0.26573211  0.65019337  0.04113846    -0.23000
C803        C  0.26367444  0.67141367  0.03308619     0.13300
C804        C  0.27723714  0.68069544  0.01081994    -0.12200
N805        N  0.31046128  0.63558448  0.98857425     0.65000
H806        H  0.28356655  0.62272842  0.03167861     0.12900
N807        N  0.24740485  0.68381219  0.04594937     0.61600
H808        H  0.27569122  0.69697612  0.00599272     0.09000
O809        O  0.37482411  0.67964590  0.96600920    -0.39800
O810        O  0.36784477  0.70404924  0.00051495    -0.39000
O811        O  0.26799049  0.70949192  0.94680253    -0.39000
O812        O  0.27382549  0.68418902  0.91345069    -0.36700
O813        O  0.25134352  0.69600423  0.06904353    -0.37600
O814        O  0.23184949  0.68727193  0.02832386    -0.33800
O815        O  0.32603802  0.63037964  0.00506059    -0.35200
O816        O  0.30544845  0.62472680  0.96437147    -0.39500
C817        C  0.20928824  0.47240225  0.10901768    -0.13200
C818        C  0.22838724  0.48248553  0.10646697     0.17200
C819        C  0.24651664  0.47027516  0.10689760     0.03500
C820        C  0.24507037  0.44859738  0.10746742    -0.11700
C821        C  0.22586182  0.43852214  0.10753924    -0.02700
C822        C  0.20781230  0.45078478  0.10917866     0.02800
C823        C  0.22859771  0.50560380  0.10422415     0.09600
N824        N  0.26659160  0.47935938  0.10560989     0.66000
H825        H  0.25909046  0.43966617  0.10661721     0.18900
N826        N  0.18772886  0.44180477  0.11130847     0.76400
H827        H  0.19534510  0.48133417  0.11089083     0.10400
C828        C  0.21607383  0.51635121  0.08158884     0.04100
C829        C  0.21525749  0.53793384  0.08190961    -0.04600
C830        C  0.22648668  0.54967368  0.10449889    -0.23000
C831        C  0.23904321  0.53900775  0.12720987     0.13300
C832        C  0.23995921  0.51722660  0.12684985    -0.12200
N833        N  0.20393867  0.50578728  0.05781568     0.65000
H834        H  0.20559900  0.54549729  0.06412594     0.12900
N835        N  0.25036508  0.54971512  0.15169980     0.61600
H836        H  0.24899320  0.50941074  0.14509820     0.09000
O837        O  0.17652604  0.44175085  0.08620871    -0.39800
O838        O  0.17921732  0.44052096  0.13890030    -0.39000
O839        O  0.27711102  0.48005842  0.13142059    -0.39000
O840        O  0.27584013  0.48011484  0.07857718    -0.36700
O841        O  0.24273776  0.55098365  0.17991359    -0.37600
O842        O  0.26960799  0.55166871  0.14824565    -0.33800
O843        O  0.18469284  0.50457814  0.06213500    -0.35200
O844        O  0.21091196  0.50429424  0.02922296    -0.39500
C845        C  0.17628835  0.83244234  0.53106505    -0.13200
C846        C  0.18082261  0.81215537  0.52145565     0.17200
C847        C  0.19950068  0.80315208  0.53182804     0.03500
C848        C  0.21305888  0.81427851  0.55152415    -0.11700
C849        C  0.20905869  0.83484013  0.56054193    -0.02700
C850        C  0.19029577  0.84395263  0.54999281     0.02800
C851        C  0.16710467  0.80129416  0.49805670     0.09600
N852        N  0.20541613  0.78286239  0.52184280     0.66000
H853        H  0.22725008  0.80685984  0.55867166     0.18900
N854        N  0.18538773  0.86500079  0.55686838     0.76400
H855        H  0.16229119  0.83968234  0.52264697     0.10400
C856        C  0.14699678  0.79475221  0.50626025     0.04100
C857        C  0.13573001  0.78250976  0.48444442    -0.04600
C858        C  0.14408073  0.77650177  0.45424613    -0.23000
C859        C  0.16343796  0.78481592  0.44492739     0.13300
C860        C  0.17468329  0.79701234  0.46682419    -0.12200
N861        N  0.13814189  0.79925617  0.53729912     0.65000
H862        H  0.12086665  0.77678132  0.49207456     0.12900
N863        N  0.17241292  0.78062859  0.41388791     0.61600
H864        H  0.18967502  0.80267868  0.45972725     0.09000
O865        O  0.17189235  0.86876154  0.57820086    -0.39800
O866        O  0.18918079  0.87854505  0.53547839    -0.39000
O867        O  0.21857389  0.78103185  0.49935384    -0.39000
O868        O  0.20276078  0.76798925  0.54136187    -0.36700
O869        O  0.17115128  0.79422245  0.39186013    -0.37600
O870        O  0.18648886  0.76722621  0.41207062    -0.33800
O871        O  0.12435346  0.81296466  0.53906625    -0.35200
O872        O  0.13932919  0.78586015  0.55962589    -0.39500
C873        C  0.16767126  0.66588228  0.29896787    -0.13200
C874        C  0.16591731  0.67583461  0.26866607     0.17200
C875        C  0.15408185  0.69425661  0.26695529     0.03500
C876        C  0.14480291  0.70229701  0.29505071    -0.11700
C877        C  0.14676774  0.69247886  0.32542419    -0.02700
C878        C  0.15846780  0.67402127  0.32713214     0.02800
C879        C  0.17484633  0.66567482  0.23905048     0.09600
N880        N  0.15124830  0.70529642  0.23707856     0.66000
H881        H  0.13592437  0.71629301  0.29287942     0.18900
N882        N  0.16158684  0.66329228  0.35715294     0.76400
H883        H  0.17576240  0.65145265  0.30080672     0.10400
C884        C  0.19534786  0.65805037  0.23757663     0.04100
C885        C  0.20248842  0.64811913  0.20934316    -0.04600
C886        C  0.18969200  0.64529751  0.18210617    -0.23000
C887        C  0.16909251  0.65244023  0.18400580     0.13300
C888        C  0.16192979  0.66223421  0.21224335    -0.12200
N889        N  0.20938942  0.66031565  0.26414164     0.65000
H890        H  0.21819402  0.64268964  0.20881535     0.12900
N891        N  0.15505714  0.65027561  0.15750378     0.61600
H892        H  0.14601837  0.66682772  0.21328483     0.09000
O893        O  0.17837209  0.66592851  0.37209072    -0.39800
O894        O  0.15122249  0.64714344  0.36276868    -0.39000
O895        O  0.13393364  0.70427350  0.22315179    -0.39000
O896        O  0.16267318  0.72067851  0.23128578    -0.36700
O897        O  0.14190803  0.63589272  0.15851562    -0.37600
O898        O  0.15160776  0.66579693  0.13963421    -0.33800
O899        O  0.21325381  0.64471740  0.28165303    -0.35200
O900        O  0.22236033  0.67485801  0.26315520    -0.39500
C901        C  0.81254523  0.80751145  0.45931415    -0.13200
C902        C  0.82047764  0.81293577  0.48992605     0.17200
C903        C  0.83976840  0.80467066  0.49931560     0.03500
C904        C  0.85020513  0.79089005  0.47877258    -0.11700
C905        C  0.84200184  0.78497041  0.44850488    -0.02700
C906        C  0.82313889  0.79395934  0.43851595     0.02800
C907        C  0.80731742  0.82545439  0.51245264     0.09600
N908        N  0.84928219  0.81018534  0.52941391     0.66000
H909        H  0.86468215  0.78456360  0.48696326     0.18900
N910        N  0.81416839  0.78945430  0.40762103     0.76400
H911        H  0.79769556  0.81323911  0.45186811     0.10400
C912        C  0.79876621  0.84466422  0.50310129     0.04100
C913        C  0.78450669  0.85466508  0.52334141    -0.04600
C914        C  0.77783025  0.84589430  0.55293621    -0.23000
C915        C  0.78660494  0.82671060  0.56251788     0.13300
C916        C  0.80121928  0.81685981  0.54242575    -0.12200
N917        N  0.80409822  0.85432841  0.47290321     0.65000
H918        H  0.77812644  0.86916289  0.51508098     0.12900
N919        N  0.78069530  0.81656418  0.59202516     0.61600
H920        H  0.80711959  0.80195645  0.54967323     0.09000
O921        O  0.81570487  0.80273360  0.38516122    -0.39800
O922        O  0.79998340  0.77612470  0.40610780    -0.39000
O923        O  0.84978550  0.79700091  0.55212616    -0.39000
O924        O  0.86238264  0.82462497  0.52934949    -0.36700
O925        O  0.76757268  0.80216818  0.59070417    -0.37600
O926        O  0.79286947  0.81720224  0.61594569    -0.33800
O927        O  0.79143156  0.85347314  0.44963476    -0.35200
O928        O  0.81734775  0.86862346  0.47305132    -0.39500
C929        C  0.83515882  0.70521584  0.25271003    -0.13200
C930        C  0.82390796  0.68685739  0.25737578     0.17200
C931        C  0.82222031  0.67874626  0.28918431     0.03500
C932        C  0.83163692  0.68891384  0.31530915    -0.11700
C933        C  0.84298994  0.70727138  0.31092227    -0.02700
C934        C  0.84454967  0.71552457  0.27898201     0.02800
C935        C  0.81599644  0.67556987  0.22829464     0.09600
N936        N  0.81180386  0.65970086  0.29557802     0.66000
H937        H  0.83018213  0.68209372  0.33923006     0.18900
N938        N  0.85551117  0.73424313  0.27239593     0.76400
H939        H  0.83681822  0.71149062  0.22844576     0.10400
C940        C  0.79484101  0.67437278  0.22046996     0.04100
C941        C  0.78846344  0.66400856  0.19219267    -0.04600
C942        C  0.80270192  0.65461863  0.17096877    -0.23000
C943        C  0.82395490  0.65594987  0.17890434     0.13300
C944        C  0.83029602  0.66642279  0.20713811    -0.12200
N945        N  0.77954003  0.68412550  0.24017725     0.65000
H946        H  0.77217511  0.66350704  0.18676240     0.12900
N947        N  0.83943265  0.64633692  0.15938988     0.61600
H948        H  0.84655925  0.66727888  0.21272474     0.09000
O949        O  0.84535560  0.75068830  0.26840636    -0.39800
O950        O  0.87352993  0.73316472  0.26086686    -0.39000
O951        O  0.82242862  0.64347283  0.29856489    -0.39000
O952        O  0.79424474  0.66031712  0.30880677    -0.36700
O953        O  0.84989308  0.65739565  0.14010207    -0.37600
O954        O  0.84672786  0.62922810  0.16867937    -0.33800
O955        O  0.77279399  0.70158730  0.23151461    -0.35200
O956        O  0.76851621  0.67300365  0.25854931    -0.39500
C957        C  0.97354577  0.75081568  0.39171927    -0.13200
C958        C  0.98284499  0.73360826  0.37703647     0.17200
C959        C  0.96989783  0.71770338  0.36500446     0.03500
C960        C  0.94843613  0.71907775  0.36866077    -0.11700
C961        C  0.93913175  0.73599817  0.38420632    -0.02700
C962        C  0.95201729  0.75220201  0.39528831     0.02800
C963        C  0.00576882  0.73119828  0.37929319     0.09600
N964        N  0.97809272  0.69981399  0.34924044     0.66000
H965        H  0.93904957  0.70659420  0.35961040     0.18900
N966        N  0.94386250  0.76969767  0.41198675     0.76400
H967        H  0.98301682  0.76273844  0.40216356     0.10400
C968        C  0.01993274  0.74685590  0.36995107     0.04100
C969        C  0.04113448  0.74422120  0.37555601    -0.04600
C970        C  0.04889753  0.72616738  0.39014884    -0.23000
C971        C  0.03470201  0.71053359  0.39939278     0.13300
C972        C  0.01353119  0.71336462  0.39439780    -0.12200
N973        N  0.01335939  0.76541354  0.35412690     0.65000
H974        H  0.05154743  0.75642881  0.36826985     0.12900
N975        N  0.04123286  0.69149132  0.41371820     0.61600
H976        H  0.00308445  0.70164876  0.40317776     0.09000
O977        O  0.94254600  0.78665145  0.39684782    -0.39800
O978        O  0.94443807  0.76989277  0.44270003    -0.39000
O979        O  0.97839913  0.68290196  0.36466748    -0.39000
O980        O  0.97829706  0.69937042  0.31852814    -0.36700
O981        O  0.04241706  0.67571682  0.39581939    -0.37600
O982        O  0.03923579  0.68904262  0.44406112    -0.33800
O983        O  0.01278295  0.78191705  0.37041261    -0.35200
O984        O  0.01517058  0.76664557  0.32358388    -0.39500
C985        C  0.67698501  0.86482863  0.38436610    -0.13200
C986        C  0.66697336  0.85299897  0.40829944     0.17200
C987        C  0.64875682  0.84230072  0.40019486     0.03500
C988        C  0.64069669  0.84389738  0.36877739    -0.11700
C989        C  0.65020936  0.85635599  0.34505986    -0.02700
C990        C  0.66874086  0.86671529  0.35297694     0.02800
C991        C  0.67430549  0.85447442  0.44229083     0.09600
N992        N  0.63793171  0.83003233  0.42361973     0.66000
H993        H  0.62656904  0.83579942  0.36328810     0.18900
N994        N  0.67863576  0.88042592  0.33051903     0.76400
H995        H  0.69062259  0.87353565  0.39056794     0.10400
C996        C  0.69396532  0.84739342  0.45167361     0.04100
C997        C  0.70101877  0.85094590  0.48326639    -0.04600
C998        C  0.68910522  0.86200676  0.50579583    -0.23000
C999        C  0.66939745  0.86913424  0.49643314     0.13300
C1000       C  0.66215676  0.86520385  0.46490483    -0.12200
N1001       N  0.70713699  0.83672726  0.42948536     0.65000
H1002       H  0.71623550  0.84554970  0.48983963     0.12900
N1003       N  0.65619500  0.87972303  0.51866445     0.61600
H1004       H  0.64720094  0.87100426  0.45779504     0.09000
O1005       O  0.69507890  0.87468065  0.31682228    -0.39800
O1006       O  0.67454223  0.89948116  0.33174155    -0.39000
O1007       O  0.62134895  0.83691284  0.43549483    -0.39000
O1008       O  0.64119523  0.81081066  0.42436628    -0.36700
O1009       O  0.64176438  0.86974600  0.53212950    -0.37600
O1010       O  0.65488497  0.89915615  0.51683945    -0.33800
O1011       O  0.72228375  0.84627757  0.41727053    -0.35200
O1012       O  0.70751346  0.81723206  0.43035235    -0.39500
C1013       C  0.60434424  0.81375459  0.05461076    -0.13200
C1014       C  0.62151955  0.82653042  0.05975298     0.17200
C1015       C  0.63553543  0.82976671  0.03396740     0.03500
C1016       C  0.63218880  0.82017496  0.00389621    -0.11700
C1017       C  0.61537087  0.80680883  0.99892643    -0.02700
C1018       C  0.60121878  0.80376775  0.02481113     0.02800
C1019       C  0.62507539  0.83422231  0.09327098     0.09600
N1020       N  0.65403775  0.84142407  0.03823997     0.66000
H1021       H  0.64344337  0.82251223  0.98480077     0.18900
N1022       N  0.58367429  0.79054378  0.02175686     0.76400
H1023       H  0.59354360  0.81104394  0.07426661     0.10400
C1024       C  0.62328294  0.85524977  0.10170008     0.04100
C1025       C  0.62319947  0.86097575  0.13449646    -0.04600
C1026       C  0.62503319  0.84620849  0.15955215    -0.23000
C1027       C  0.62796259  0.82527514  0.15099457     0.13300
C1028       C  0.62778871  0.81951883  0.11813325    -0.12200
N1029       N  0.62076441  0.87106683  0.07769581     0.65000
H1030       H  0.62123783  0.87712003  0.14024415     0.12900
N1031       N  0.63089928  0.80952192  0.17498255     0.61600
H1032       H  0.62927047  0.80337367  0.11199325     0.09000
O1033       O  0.56624538  0.79863928  0.01688935    -0.39800
O1034       O  0.58449701  0.77259461  0.03383981    -0.39000
O1035       O  0.67041398  0.83184693  0.04513895    -0.39000
O1036       O  0.65542447  0.85889320  0.02465357    -0.36700
O1037       O  0.61588388  0.79803832  0.18256384    -0.37600
O1038       O  0.64898473  0.80323913  0.18047522    -0.33800
O1039       O  0.60289358  0.87803282  0.07251218    -0.35200
O1040       O  0.63605024  0.88242695  0.07110603    -0.39500
C1041       C  0.65005517  0.12208906  0.47150851    -0.13200
C1042       C  0.65837295  0.13619080  0.44886091     0.17200
C1043       C  0.67428830  0.14956636  0.45886760     0.03500
C1044       C  0.68237070  0.14796146  0.49048414    -0.11700
C1045       C  0.67491031  0.13304914  0.51273284    -0.02700
C1046       C  0.65814309  0.12045070  0.50315894     0.02800
C1047       C  0.64911435  0.13679581  0.41575444     0.09600
N1048       N  0.68238939  0.16521895  0.43780477     0.66000
H1049       H  0.69463943  0.15787860  0.49704738     0.18900
N1050       N  0.64911687  0.10555080  0.52463898     0.76400
H1051       H  0.63779572  0.11235672  0.46462047     0.10400
C1052       C  0.65973406  0.12987073  0.38780471     0.04100
C1053       C  0.64921994  0.12784558  0.35817564    -0.04600
C1054       C  0.62800751  0.13205316  0.35563542    -0.23000
C1055       C  0.61750795  0.13938123  0.38357307     0.13300
C1056       C  0.62814049  0.14176283  0.41303688    -0.12200
N1057       N  0.68070830  0.12320862  0.38929905     0.65000
H1058       H  0.65760810  0.12199127  0.33743163     0.12900
N1059       N  0.59601678  0.14416942  0.38300274     0.61600
H1060       H  0.61974666  0.14685902  0.43433094     0.09000
O1061       O  0.65390333  0.08677717  0.52128538    -0.39800
O1062       O  0.63241336  0.10998977  0.53878424    -0.39000
O1063       O  0.67558609  0.18339784  0.44056304    -0.39000
O1064       O  0.70007842  0.16264427  0.42567135    -0.36700
O1065       O  0.58335519  0.13104176  0.39397608    -0.37600
O1066       O  0.59064035  0.16288560  0.38133939    -0.33800
O1067       O  0.68431404  0.10415241  0.39267622    -0.35200
O1068       O  0.69440161  0.13449780  0.37652105    -0.39500
C1069       C  0.61362558  0.17598765  0.13735768    -0.13200
C1070       C  0.61661696  0.16265938  0.11087902     0.17200
C1071       C  0.61999663  0.14146078  0.11700864     0.03500
C1072       C  0.61923399  0.13389621  0.14884591    -0.11700
C1073       C  0.61476310  0.14689427  0.17528056    -0.02700
C1074       C  0.61245082  0.16833808  0.16932540     0.02800
C1075       C  0.61647048  0.17120600  0.07725624     0.09600
N1076       N  0.62301483  0.12701734  0.09119425     0.66000
H1077       H  0.62118545  0.11749886  0.15249647     0.18900
N1078       N  0.60837112  0.18263706  0.19493724     0.76400
H1079       H  0.61190153  0.19234548  0.13321099     0.10400
C1080       C  0.59978580  0.18300093  0.06533775     0.04100
C1081       C  0.60026967  0.19074237  0.03357077    -0.04600
C1082       C  0.61718988  0.18726878  0.01289238    -0.23000
C1083       C  0.63405474  0.17566991  0.02500983     0.13300
C1084       C  0.63353740  0.16786463  0.05692650    -0.12200
N1085       N  0.58196314  0.18710675  0.08477543     0.65000
H1086       H  0.58720232  0.19958454  0.02518361     0.12900
N1087       N  0.65201300  0.17180485  0.00583547     0.61600
H1088       H  0.64666590  0.15941536  0.06598139     0.09000
O1089       O  0.62311607  0.19322782  0.20601827    -0.39800
O1090       O  0.59019109  0.18919134  0.19856323    -0.39000
O1091       O  0.64069656  0.11928541  0.08718010    -0.39000
O1092       O  0.60753942  0.11759697  0.07998822    -0.36700
O1093       O  0.65455804  0.15394495  0.99424328    -0.37600
O1094       O  0.66755394  0.18331799  0.00952517    -0.33800
O1095       O  0.57969065  0.20496993  0.09652042    -0.35200
O1096       O  0.56628314  0.17575815  0.08136991    -0.39500
C1097       C  0.59588459  0.01077416  0.25249030    -0.13200
C1098       C  0.61519325  0.00355071  0.26266608     0.17200
C1099       C  0.63116329  0.01792260  0.26820267     0.03500
C1100       C  0.62708294  0.03911355  0.26613357    -0.11700
C1101       C  0.60741962  0.04648684  0.25766749    -0.02700
C1102       C  0.59192078  0.03196507  0.24949502     0.02800
C1103       C  0.61833109  0.98092744  0.26518573     0.09600
N1104       N  0.65158191  0.01145072  0.27628906     0.66000
H1105       H  0.63938486  0.04980046  0.27163139     0.18900
N1106       N  0.57228900  0.03817236  0.23716127     0.76400
H1107       H  0.58389628  0.99988117  0.24633338     0.10400
C1108       C  0.60612893  0.96861712  0.28611635     0.04100
C1109       C  0.60748271  0.94711419  0.28471362    -0.04600
C1110       C  0.62052744  0.93726657  0.26230846    -0.23000
C1111       C  0.63311774  0.94962923  0.24180428     0.13300
C1112       C  0.63193021  0.97125580  0.24352525    -0.12200
N1113       N  0.59190279  0.97756615  0.30861666     0.65000
H1114       H  0.59783536  0.93812287  0.30088468     0.12900
N1115       N  0.64644014  0.94075778  0.21794498     0.61600
H1116       H  0.64094800  0.98048461  0.22680858     0.09000
O1117       O  0.55682828  0.03725499  0.25580152    -0.39800
O1118       O  0.56943756  0.03786393  0.20676500    -0.39000
O1119       O  0.66524602  0.01188738  0.25437262    -0.39000
O1120       O  0.65711656  0.01186705  0.30571861    -0.36700
O1121       O  0.64010317  0.93928796  0.18900195    -0.37600
O1122       O  0.66560629  0.94065677  0.22321541    -0.33800
O1123       O  0.57290452  0.97708423  0.30200426    -0.35200
O1124       O  0.59733456  0.97955788  0.33792926    -0.39500
C1125       C  0.29607638  0.10965163  0.36736402    -0.13200
C1126       C  0.30698591  0.12201757  0.38948134     0.17200
C1127       C  0.32503913  0.13222059  0.37866321     0.03500
C1128       C  0.33208754  0.12932444  0.34688967    -0.11700
C1129       C  0.32187957  0.11605387  0.32525626    -0.02700
C1130       C  0.30326859  0.10660326  0.33551313     0.02800
C1131       C  0.30083265  0.12158546  0.42438813     0.09600
N1132       N  0.33690729  0.14517977  0.39964115     0.66000
H1133       H  0.34627370  0.13685692  0.33977490     0.18900
N1134       N  0.29153937  0.09358314  0.31448197     0.76400
H1135       H  0.28249804  0.10139789  0.37527635     0.10400
C1136       C  0.28042999  0.12553829  0.43474073     0.04100
C1137       C  0.27502233  0.12262563  0.46740909    -0.04600
C1138       C  0.28953563  0.11611145  0.49065961    -0.23000
C1139       C  0.30998875  0.11235103  0.48037451     0.13300
C1140       C  0.31529028  0.11478416  0.44746974    -0.12200
N1141       N  0.26500323  0.13300797  0.41283773     0.65000
H1142       H  0.25933089  0.12586016  0.47467210     0.12900
N1143       N  0.32551421  0.10536368  0.50239145     0.61600
H1144       H  0.33067622  0.11071545  0.43983614     0.09000
O1145       O  0.27563097  0.10093702  0.30111176    -0.39800
O1146       O  0.29306109  0.07423240  0.31766923    -0.39000
O1147       O  0.35347289  0.13815386  0.41138087    -0.39000
O1148       O  0.33486000  0.16450973  0.39704277    -0.36700
O1149       O  0.33008057  0.08640125  0.50270119    -0.37600
O1150       O  0.33864068  0.11825743  0.51243389    -0.33800
O1151       O  0.25105840  0.12075061  0.40355376    -0.35200
O1152       O  0.26151093  0.15218902  0.41187683    -0.39500
C1153       C  0.33857504  0.15024641  0.10212388    -0.13200
C1154       C  0.35049466  0.14063358  0.07800570     0.17200
C1155       C  0.36140190  0.12242403  0.08607111     0.03500
C1156       C  0.36040103  0.11443974  0.11765098    -0.11700
C1157       C  0.34912195  0.12437110  0.14227125    -0.02700
C1158       C  0.33784733  0.14240219  0.13404888     0.02800
C1159       C  0.35379255  0.15147376  0.04647501     0.09600
N1160       N  0.37412379  0.11198267  0.06290525     0.66000
H1161       H  0.36915528  0.10068273  0.12301149     0.18900
N1162       N  0.32608580  0.15346702  0.15766065     0.76400
H1163       H  0.33067215  0.16448343  0.09668908     0.10400
C1164       C  0.33743490  0.15785764  0.02605838     0.04100
C1165       C  0.34168333  0.16897805  0.99751849    -0.04600
C1166       C  0.36199565  0.17407831  0.98877040    -0.23000
C1167       C  0.37828365  0.16785149  0.00936537     0.13300
C1168       C  0.37401786  0.15692159  0.03797048    -0.12200
N1169       N  0.31642402  0.15312854  0.03348720     0.65000
H1170       H  0.32895773  0.17386105  0.98242420     0.12900
N1171       N  0.39935614  0.17185870  0.00146601     0.61600
H1172       H  0.38663051  0.15296372  0.05386475     0.09000
O1173       O  0.30669518  0.15183242  0.15716972    -0.39800
O1174       O  0.33406988  0.16907721  0.17103168    -0.39000
O1175       O  0.39343673  0.11418394  0.06469563    -0.39000
O1176       O  0.36704139  0.09612681  0.04902765    -0.36700
O1177       O  0.40860483  0.18624708  0.01612051    -0.37600
O1178       O  0.40984536  0.15755636  0.98879939    -0.33800
O1179       O  0.30499626  0.16732762  0.04430841    -0.35200
O1180       O  0.30814296  0.13784500  0.01965857    -0.39500
C1181       C  0.45662944  0.10475687  0.28491510    -0.13200
C1182       C  0.46511575  0.12250635  0.27061832     0.17200
C1183       C  0.45213245  0.13610240  0.25322580     0.03500
C1184       C  0.43113023  0.13167736  0.25029416    -0.11700
C1185       C  0.42263933  0.11362027  0.26381041    -0.02700
C1186       C  0.43566947  0.10011516  0.28157013     0.02800
C1187       C  0.48783446  0.12431318  0.26952884     0.09600
N1188       N  0.45994787  0.15432291  0.23780038     0.66000
H1189       H  0.42157501  0.14225190  0.23663939     0.18900
N1190       N  0.42840049  0.08102263  0.29485468     0.76400
H1191       H  0.46652092  0.09382221  0.29718411     0.10400
C1192       C  0.49999764  0.12455973  0.29798763     0.04100
C1193       C  0.52143663  0.12301099  0.29557882    -0.04600
C1194       C  0.53120421  0.12113335  0.26519674    -0.23000
C1195       C  0.51897026  0.12114080  0.23669134     0.13300
C1196       C  0.49753441  0.12265404  0.23917915    -0.12200
N1197       N  0.49097094  0.12654785  0.32957142     0.65000
H1198       H  0.53041569  0.12318750  0.31772128     0.12900
N1199       N  0.52778179  0.11912236  0.20497228     0.61600
H1200       H  0.48837362  0.12172688  0.21728449     0.09000
O1201       O  0.42560027  0.07969289  0.32520177    -0.39800
O1202       O  0.43119470  0.06467414  0.27877685    -0.39000
O1203       O  0.46213752  0.15440087  0.20725468    -0.39000
O1204       O  0.45813910  0.17136088  0.25238454    -0.36700
O1205       O  0.52754612  0.10165022  0.19139187    -0.37600
O1206       O  0.52977344  0.13511262  0.18755971    -0.33800
O1207       O  0.48960962  0.11072006  0.34750704    -0.35200
O1208       O  0.49067000  0.14416438  0.34266360    -0.39500
C1209       C  0.31255162  0.84203070  0.39070227    -0.13200
C1210       C  0.32541944  0.84280337  0.41803063     0.17200
C1211       C  0.34684917  0.84047238  0.41391158     0.03500
C1212       C  0.35516243  0.83942939  0.38253736    -0.11700
C1213       C  0.34246717  0.84043236  0.35480844    -0.02700
C1214       C  0.32082498  0.84063607  0.35924821     0.02800
C1215       C  0.31602747  0.84635044  0.45033833     0.09600
N1216       N  0.36057350  0.84008835  0.44108742     0.66000
H1217       H  0.37170134  0.83877888  0.38002896     0.18900
N1218       N  0.30690027  0.83968532  0.33241045     0.76400
H1219       H  0.29605852  0.84287168  0.39377626     0.10400
C1220       C  0.30618559  0.86518346  0.45764702     0.04100
C1221       C  0.29671988  0.86787715  0.48782361    -0.04600
C1222       C  0.29655449  0.85203761  0.51127959    -0.23000
C1223       C  0.30603424  0.83293540  0.50365650     0.13300
C1224       C  0.31579242  0.83033973  0.47339865    -0.12200
N1225       N  0.30586917  0.88197949  0.43497069     0.65000
H1226       H  0.28955230  0.88257094  0.49283407     0.12900
N1227       N  0.30535796  0.81573294  0.52551194     0.61600
H1228       H  0.32278474  0.81568211  0.46762423     0.09000
O1229       O  0.29771233  0.85596134  0.32365617    -0.39800
O1230       O  0.29926340  0.82239977  0.32486961    -0.39000
O1231       O  0.36812511  0.82299546  0.44992761    -0.39000
O1232       O  0.36961375  0.85656964  0.44917049    -0.36700
O1233       O  0.29173337  0.80204678  0.52135456    -0.37600
O1234       O  0.32140205  0.81115146  0.54129946    -0.33800
O1235       O  0.28947361  0.88557805  0.41943563    -0.35200
O1236       O  0.31893625  0.89629935  0.43810386    -0.39500
C1237       C  0.37588499  0.82995426  0.11003158    -0.13200
C1238       C  0.36277431  0.81308079  0.10508741     0.17200
C1239       C  0.35250420  0.80418785  0.13208721     0.03500
C1240       C  0.35485196  0.81283700  0.16307979    -0.11700
C1241       C  0.36757528  0.83010357  0.16792074    -0.02700
C1242       C  0.37851711  0.83840187  0.14100839     0.02800
C1243       C  0.36221652  0.80375262  0.07226825     0.09600
N1244       N  0.33949718  0.78649609  0.12862393     0.66000
H1245       H  0.34656468  0.80609186  0.18331113     0.18900
N1246       N  0.39320921  0.85469400  0.14467909     0.76400
H1247       H  0.38468996  0.83618084  0.08992464     0.10400
C1248       C  0.35654042  0.81522572  0.04437549     0.04100
C1249       C  0.35845273  0.80645057  0.01349385    -0.04600
C1250       C  0.36622301  0.78638748  0.00953718    -0.23000
C1251       C  0.37207306  0.77498194  0.03754478     0.13300
C1252       C  0.36999763  0.78374720  0.06843489    -0.12200
N1253       N  0.34869632  0.83579090  0.04675129     0.65000
H1254       H  0.35391777  0.81550876  0.99257996     0.12900
N1255       N  0.38023042  0.75453224  0.03548195     0.61600
H1256       H  0.37509068  0.77509345  0.08944441     0.09000
O1257       O  0.38841787  0.87266216  0.13535996    -0.39800
O1258       O  0.41203561  0.85010468  0.14757851    -0.39000
O1259       O  0.34602472  0.76914390  0.13823760    -0.39000
O1260       O  0.32031674  0.78918176  0.12574029    -0.36700
O1261       O  0.39953970  0.75210580  0.03592023    -0.37600
O1262       O  0.36877794  0.73954627  0.04335783    -0.33800
O1263       O  0.36017098  0.85067528  0.03841874    -0.35200
O1264       O  0.32941563  0.83839502  0.04688446    -0.39500
C1265       C  0.47349675  0.86105702  0.29854755    -0.13200
C1266       C  0.48332823  0.84887879  0.27513758     0.17200
C1267       C  0.47152289  0.83526482  0.25595738     0.03500
C1268       C  0.45002543  0.83523876  0.25886245    -0.11700
C1269       C  0.43999282  0.84869925  0.28049614    -0.02700
C1270       C  0.45203333  0.86117065  0.30133792     0.02800
C1271       C  0.50583747  0.85114588  0.27122785     0.09600
N1272       N  0.48085278  0.82223835  0.23210014     0.66000
H1273       H  0.44118874  0.82546547  0.24284385     0.18900
N1274       N  0.44292451  0.87432982  0.32518694     0.76400
H1275       H  0.48250793  0.87091656  0.31418269     0.10400
C1276       C  0.51451723  0.87006998  0.26104075     0.04100
C1277       C  0.53586499  0.87232521  0.25960683    -0.04600
C1278       C  0.54913268  0.85623199  0.26901650    -0.23000
C1279       C  0.54036271  0.83748452  0.28051267     0.13300
C1280       C  0.51884771  0.83503734  0.28103616    -0.12200
N1281       N  0.50194051  0.88736254  0.25236573     0.65000
H1282       H  0.54199112  0.88693445  0.25125315     0.12900
N1283       N  0.55277439  0.82098852  0.29274402     0.61600
H1284       H  0.51228184  0.82078964  0.29010337     0.09000
O1285       O  0.44225143  0.89351786  0.31964980    -0.39800
O1286       O  0.44186304  0.86802124  0.35425566    -0.39000
O1287       O  0.48247297  0.80315937  0.23808530    -0.39000
O1288       O  0.48133756  0.82828459  0.20285996    -0.36700
O1289       O  0.55516517  0.81933129  0.32314033    -0.37600
O1290       O  0.55548214  0.80526534  0.27516191    -0.33800
O1291       O  0.49970358  0.90179525  0.27267186    -0.35200
O1292       O  0.49872831  0.89104545  0.22261468    -0.39500
C1293       C  0.34612657  0.95559154  0.26302804    -0.13200
C1294       C  0.35866587  0.96532737  0.23972780     0.17200
C1295       C  0.37282291  0.95335911  0.22168504     0.03500
C1296       C  0.37451379  0.93221019  0.22776121    -0.11700
C1297       C  0.36222359  0.92249916  0.25140111    -0.02700
C1298       C  0.34764549  0.93430937  0.26880769     0.02800
C1299       C  0.35878405  0.98815822  0.23806398     0.09600
N1300       N  0.38561687  0.96229833  0.19698932     0.66000
H1301       H  0.38551961  0.92336375  0.21385847     0.18900
N1302       N  0.33507376  0.92536205  0.29370771     0.76400
H1303       H  0.33578174  0.96463198  0.27779343     0.10400
C1304       C  0.34076114  0.99984954  0.23250943     0.04100
C1305       C  0.34171889  0.02140310  0.23277056    -0.04600
C1306       C  0.36024281  0.03179279  0.23929431    -0.23000
C1307       C  0.37814026  0.02001004  0.24611889     0.13300
C1308       C  0.37721407  0.99844756  0.24526910    -0.12200
N1309       N  0.32127889  0.99027721  0.22659178     0.65000
H1310       H  0.32774307  0.02999286  0.22811028     0.12900
N1311       N  0.39735951  0.02937591  0.25448884     0.61600
H1312       H  0.39088612  0.98968794  0.25116420     0.09000
O1313       O  0.31631573  0.92190429  0.28766079    -0.39800
O1314       O  0.34073658  0.92693390  0.32298338    -0.39000
O1315       O  0.40457338  0.96478541  0.20273918    -0.39000
O1316       O  0.37970263  0.96139430  0.16777085    -0.36700
O1317       O  0.40210519  0.03071344  0.28420287    -0.37600
O1318       O  0.41155818  0.02978725  0.23344347    -0.33800
O1319       O  0.30810691  0.98997287  0.24925346    -0.35200
O1320       O  0.31513222  0.98871086  0.19757316    -0.39500
C1321       C  0.14116022  0.63667314  0.89883090    -0.13200
C1322       C  0.16019486  0.62701976  0.90393319     0.17200
C1323       C  0.17018356  0.61739329  0.87757044     0.03500
C1324       C  0.16091834  0.61733629  0.84680672    -0.11700
C1325       C  0.14149298  0.62639000  0.84165678    -0.02700
C1326       C  0.13171842  0.63645468  0.86812117     0.02800
C1327       C  0.16816278  0.62558464  0.93758529     0.09600
N1328       N  0.18936511  0.60688980  0.88168058     0.66000
H1329       H  0.16866165  0.60940216  0.82721021     0.18900
N1330       N  0.11238538  0.64676440  0.86452780     0.76400
H1331       H  0.13337289  0.64401309  0.91897262     0.10400
C1332       C  0.18094366  0.64093595  0.95092579     0.04100
C1333       C  0.18716786  0.63949026  0.98341899    -0.04600
C1334       C  0.18131498  0.62264398  0.00316696    -0.23000
C1335       C  0.16814011  0.60740158  0.98979579     0.13300
C1336       C  0.16155741  0.60915795  0.95735743    -0.12200
N1337       N  0.18834816  0.65781066  0.93168621     0.65000
H1338       H  0.19728912  0.65133138  0.99274503     0.12900
N1339       N  0.16177010  0.58968247  0.00806726     0.61600
H1340       H  0.15145286  0.59750026  0.94741461     0.09000
O1341       O  0.11229970  0.66623233  0.86239990    -0.39800
O1342       O  0.09616520  0.63762093  0.87366195    -0.39000
O1343       O  0.18933926  0.58740724  0.88346113    -0.39000
O1344       O  0.20577640  0.61605200  0.87353538    -0.36700
O1345       O  0.14384599  0.58934763  0.02007814    -0.37600
O1346       O  0.17106203  0.57279558  0.00357708    -0.33800
O1347       O  0.18047827  0.67545468  0.93568463    -0.35200
O1348       O  0.20606554  0.65650414  0.91910897    -0.39500
C1349       C  0.10994341  0.66949978  0.54780705    -0.13200
C1350       C  0.12919337  0.67102914  0.56296371     0.17200
C1351       C  0.14602844  0.67919742  0.54542128     0.03500
C1352       C  0.14303163  0.68687727  0.51392312    -0.11700
C1353       C  0.12352069  0.68623727  0.49909365    -0.02700
C1354       C  0.10697406  0.67679208  0.51607580     0.02800
C1355       C  0.13123031  0.66265853  0.59627814     0.09600
N1356       N  0.16620788  0.68018841  0.55919553     0.66000
H1357       H  0.15600537  0.69369939  0.50136290     0.18900
N1358       N  0.08701277  0.67445003  0.50188488     0.76400
H1359       H  0.09717077  0.66249276  0.56064407     0.10400
C1360       C  0.12130712  0.67209379  0.62288597     0.04100
C1361       C  0.12082916  0.66214963  0.65308828    -0.04600
C1362       C  0.12937788  0.64238277  0.65737834    -0.23000
C1363       C  0.13944855  0.63296321  0.63056979     0.13300
C1364       C  0.14050400  0.64331323  0.60052954    -0.12200
N1365       N  0.11082015  0.69139398  0.61951565     0.65000
H1366       H  0.11280585  0.66963853  0.67283550     0.12900
N1367       N  0.14808092  0.61270292  0.63267808     0.61600
H1368       H  0.14764431  0.63574391  0.58001519     0.09000
O1369       O  0.08240271  0.65739974  0.48892184    -0.39800
O1370       O  0.07269536  0.68633432  0.51089561    -0.39000
O1371       O  0.17950694  0.66717312  0.55015862    -0.39000
O1372       O  0.17222420  0.69701998  0.57139630    -0.36700
O1373       O  0.16738933  0.61092414  0.63519137    -0.37600
O1374       O  0.13780663  0.59764727  0.62182817    -0.33800
O1375       O  0.09142701  0.69133379  0.61688671    -0.35200
O1376       O  0.11966900  0.70760765  0.62925998    -0.39500
C1377       C  0.85193317  0.63586627  0.57585709    -0.13200
C1378       C  0.85476702  0.65733095  0.57518375     0.17200
C1379       C  0.85533348  0.66830588  0.60468674     0.03500
C1380       C  0.85451375  0.65763686  0.63425372    -0.11700
C1381       C  0.85332084  0.63597127  0.63526265    -0.02700
C1382       C  0.85120454  0.62506196  0.60553431     0.02800
C1383       C  0.85708100  0.66791971  0.54344866     0.09600
N1384       N  0.85712508  0.69029682  0.60529824     0.66000
H1385       H  0.85568811  0.66641415  0.65646017     0.18900
N1386       N  0.84910634  0.60307518  0.60459249     0.76400
H1387       H  0.85090308  0.62742801  0.55330550     0.10400
C1388       C  0.87663979  0.67276941  0.53060659     0.04100
C1389       C  0.87823651  0.68313995  0.50076842    -0.04600
C1390       C  0.86060109  0.68912471  0.48323007    -0.23000
C1391       C  0.84096135  0.68337777  0.49561557     0.13300
C1392       C  0.83943819  0.67278078  0.52542241    -0.12200
N1393       N  0.89512170  0.66752974  0.54762070     0.65000
H1394       H  0.89342417  0.68708420  0.49190601     0.12900
N1395       N  0.82232791  0.68827750  0.47880787     0.61600
H1396       H  0.82441342  0.66865291  0.53479384     0.09000
O1397       O  0.86476449  0.59228472  0.59803212    -0.39800
O1398       O  0.83142329  0.59539864  0.60024692    -0.39000
O1399       O  0.84113199  0.70089254  0.61047425    -0.39000
O1400       O  0.87452218  0.69821012  0.61108775    -0.36700
O1401       O  0.81368281  0.67437063  0.46220019    -0.37600
O1402       O  0.81167663  0.70332657  0.48868232    -0.33800
O1403       O  0.90552310  0.65222331  0.53806793    -0.35200
O1404       O  0.90386526  0.68119625  0.56456555    -0.39500
C1405       C  0.82000014  0.63126929  0.86612883    -0.13200
C1406       C  0.83338564  0.62534275  0.89136663     0.17200
C1407       C  0.85306932  0.61772833  0.88332959     0.03500
C1408       C  0.85895882  0.61615892  0.85069660    -0.11700
C1409       C  0.84548259  0.62150717  0.82518925    -0.02700
C1410       C  0.82577288  0.62937798  0.83327897     0.02800
C1411       C  0.82517129  0.62434033  0.92507758     0.09600
N1412       N  0.86680959  0.60993600  0.90758220     0.66000
H1413       H  0.87403416  0.60994603  0.84547159     0.18900
N1414       N  0.81112725  0.63502515  0.80888474     0.76400
H1415       H  0.80472150  0.63674860  0.87196425     0.10400
C1416       C  0.83229290  0.63709534  0.95050646     0.04100
C1417       C  0.82336741  0.63554494  0.98153727    -0.04600
C1418       C  0.80721956  0.62158539  0.98794072    -0.23000
C1419       C  0.79995509  0.60902780  0.96217022     0.13300
C1420       C  0.80901218  0.61049194  0.93130950    -0.12200
N1421       N  0.84783226  0.65240468  0.94520138     0.65000
H1422       H  0.82892910  0.64560983  0.00050486     0.12900
N1423       N  0.78332183  0.59476548  0.96642609     0.61600
H1424       H  0.80329091  0.60079018  0.91196429     0.09000
O1425       O  0.80851848  0.65394909  0.80258309    -0.39800
O1426       O  0.79701395  0.62238670  0.80173196    -0.39000
O1427       O  0.86719969  0.59069567  0.91274505    -0.39000
O1428       O  0.88251650  0.62050038  0.91472604    -0.36700
O1429       O  0.76552504  0.59992713  0.95703010    -0.37600
O1430       O  0.78741860  0.57581824  0.96987738    -0.33800
O1431       O  0.84226685  0.67082483  0.94014110    -0.35200
O1432       O  0.86568549  0.64916116  0.95624251    -0.39500
C1433       C  0.96747498  0.63635180  0.75285014    -0.13200
C1434       C  0.97977257  0.61974423  0.74280321     0.17200
C1435       C  0.97011833  0.60188023  0.73019378     0.03500
C1436       C  0.94870831  0.60106213  0.72761031    -0.11700
C1437       C  0.93625560  0.61762140  0.73753130    -0.02700
C1438       C  0.94590394  0.63547645  0.75039857     0.02800
C1439       C  0.00235747  0.62048923  0.74831205     0.09600
N1440       N  0.98168427  0.58429608  0.71969846     0.66000
H1441       H  0.94186710  0.58721923  0.71775050     0.18900
N1442       N  0.93428903  0.65270546  0.76191191     0.76400
H1443       H  0.97455810  0.64979276  0.76355660     0.10400
C1444       C  0.01502645  0.63656491  0.73619438     0.04100
C1445       C  0.03640817  0.63550465  0.74037246    -0.04600
C1446       C  0.04560727  0.61840388  0.75569923    -0.23000
C1447       C  0.03277609  0.60283728  0.76905854     0.13300
C1448       C  0.01140929  0.60441040  0.76613513    -0.12200
N1449       N  0.00678373  0.65344995  0.71787293     0.65000
H1450       H  0.04583571  0.64766757  0.73018033     0.12900
N1451       N  0.04093731  0.58435486  0.78309096     0.61600
H1452       H  0.00190486  0.59251073  0.77677663     0.09000
O1453       O  0.93081121  0.65416432  0.79206266    -0.39800
O1454       O  0.93357279  0.66882772  0.74456685    -0.39000
O1455       O  0.98191956  0.56836549  0.73754514    -0.39000
O1456       O  0.98559923  0.58238700  0.68975928    -0.36700
O1457       O  0.04041412  0.58214089  0.81361688    -0.37600
O1458       O  0.04233330  0.56848976  0.76542563    -0.33800
O1459       O  0.00550179  0.67094317  0.73123954    -0.35200
O1460       O  0.00722708  0.65251646  0.68719323    -0.39500
C1461       C  0.20089215  0.36730310  0.93300633    -0.13200
C1462       C  0.17944180  0.36519587  0.93052364     0.17200
C1463       C  0.16766648  0.36348129  0.95942148     0.03500
C1464       C  0.17736607  0.36457778  0.98977895    -0.11700
C1465       C  0.19876885  0.36732992  0.99237949    -0.02700
C1466       C  0.21062851  0.36841650  0.96338909     0.02800
C1467       C  0.17005986  0.36357710  0.89759421     0.09600
N1468       N  0.14575972  0.36114524  0.95873663     0.66000
H1469       H  0.16795297  0.36354674  0.01141936     0.18900
N1470       N  0.23257836  0.37024558  0.96390917     0.76400
H1471       H  0.21021980  0.36775122  0.91125219     0.10400
C1472       C  0.17385264  0.37843030  0.87297708     0.04100
C1473       C  0.16539490  0.37584152  0.84200036    -0.04600
C1474       C  0.15257127  0.35898193  0.83475784    -0.23000
C1475       C  0.14905577  0.34390756  0.85923230     0.13300
C1476       C  0.15808644  0.34618068  0.89003028    -0.12200
N1477       N  0.18522304  0.39692507  0.87925253     0.65000
H1478       H  0.16811462  0.38777567  0.82401795     0.12900
N1479       N  0.13628825  0.32627131  0.85375527     0.61600
H1480       H  0.15568592  0.33427429  0.90809868     0.09000
O1481       O  0.24053846  0.38774324  0.95857376    -0.39800
O1482       O  0.24331528  0.35427109  0.95912666    -0.39000
O1483       O  0.13811537  0.34367795  0.96539330    -0.39000
O1484       O  0.13468566  0.37702115  0.96214158    -0.36700
O1485       O  0.14478908  0.30922611  0.84729617    -0.37600
O1486       O  0.11831174  0.32617897  0.86557524    -0.33800
O1487       O  0.20311868  0.39872709  0.86744413    -0.35200
O1488       O  0.17538398  0.41308393  0.88656427    -0.39500
C1489       C  0.12434143  0.31170214  0.61109862    -0.13200
C1490       C  0.13104153  0.32485937  0.58599081     0.17200
C1491       C  0.13794645  0.34490633  0.59382501     0.03500
C1492       C  0.13725961  0.35164010  0.62616035    -0.11700
C1493       C  0.12990856  0.33874477  0.65122835    -0.02700
C1494       C  0.12382832  0.31836091  0.64350910     0.02800
C1495       C  0.12805551  0.31796331  0.55195842     0.09600
N1496       N  0.14478337  0.35907698  0.56933634     0.66000
H1497       H  0.14202985  0.36726452  0.63149664     0.18900
N1498       N  0.11612363  0.30446219  0.66774057     0.76400
H1499       H  0.11885837  0.29637181  0.60534033     0.10400
C1500       C  0.14462233  0.31294915  0.53119497     0.04100
C1501       C  0.14065119  0.30510984  0.50008136    -0.04600
C1502       C  0.12040206  0.30129010  0.48956317    -0.23000
C1503       C  0.10383765  0.30601646  0.51062065     0.13300
C1504       C  0.10780301  0.31456985  0.54123585    -0.12200
N1505       N  0.16549839  0.31390883  0.54211280     0.65000
H1506       H  0.15357583  0.30088573  0.48480031     0.12900
N1507       N  0.08290222  0.30228621  0.50154800     0.61600
H1508       H  0.09497086  0.31806962  0.55716625     0.09000
O1509       O  0.09687375  0.30243003  0.67107040    -0.39800
O1510       O  0.12783796  0.29037669  0.67822303    -0.39000
O1511       O  0.13244065  0.37277924  0.55940284    -0.39000
O1512       O  0.16389641  0.36219428  0.56624797    -0.36700
O1513       O  0.07414157  0.28599185  0.51142158    -0.37600
O1514       O  0.07195081  0.31733666  0.49242329    -0.33800
O1515       O  0.17365322  0.29770659  0.55344353    -0.35200
O1516       O  0.17705219  0.32799061  0.53108104    -0.39500
C1517       C  0.12982117  0.46814348  0.71456068    -0.13200
C1518       C  0.11522895  0.47830986  0.73387078     0.17200
C1519       C  0.10035491  0.46664772  0.75088416     0.03500
C1520       C  0.10092730  0.44509582  0.74966462    -0.11700
C1521       C  0.11604596  0.43468710  0.73148181    -0.02700
C1522       C  0.13027403  0.44649982  0.71295840     0.02800
C1523       C  0.11508438  0.50110067  0.73431007     0.09600
N1524       N  0.08485310  0.47633045  0.77029168     0.66000
H1525       H  0.08973141  0.43652237  0.76377656     0.18900
N1526       N  0.14491194  0.43703204  0.69172584     0.76400
H1527       H  0.14076178  0.47705441  0.70044413     0.10400
C1528       C  0.13045573  0.51247549  0.75050579     0.04100
C1529       C  0.12989493  0.53403058  0.74998206    -0.04600
C1530       C  0.11415463  0.54472804  0.73365365    -0.23000
C1531       C  0.09909482  0.53322203  0.71644470     0.13300
C1532       C  0.09973932  0.51158552  0.71698860    -0.12200
N1533       N  0.14632811  0.50248828  0.76874937     0.65000
H1534       H  0.14162053  0.54236702  0.76327937     0.12900
N1535       N  0.08288748  0.54297807  0.69859469     0.61600
H1536       H  0.08816963  0.50291231  0.70387870     0.09000
O1537       O  0.16353172  0.43616415  0.70049029    -0.39800
O1538       O  0.14071235  0.43578843  0.66179110    -0.39000
O1539       O  0.06664853  0.47718498  0.75954510    -0.39000
O1540       O  0.08781342  0.47802559  0.80052575    -0.36700
O1541       O  0.08465830  0.54470473  0.66809535    -0.37600
O1542       O  0.06511085  0.54361804  0.71108926    -0.33800
O1543       O  0.16437312  0.50211652  0.75721713    -0.35200
O1544       O  0.14385763  0.50015431  0.79902472    -0.39500
C1545       C  0.85728042  0.31878982  0.61127145    -0.13200
C1546       C  0.86964300  0.32853220  0.58774512     0.17200
C1547       C  0.87986530  0.34705895  0.59595990     0.03500
C1548       C  0.87871977  0.35457213  0.62783682    -0.11700
C1549       C  0.86739628  0.34411640  0.65210455    -0.02700
C1550       C  0.85603509  0.32635661  0.64315528     0.02800
C1551       C  0.87117206  0.31913573  0.55488916     0.09600
N1552       N  0.89209072  0.35816143  0.57276823     0.66000
H1553       H  0.88731993  0.36834704  0.63372958     0.18900
N1554       N  0.84294097  0.31581253  0.66570392     0.76400
H1555       H  0.84855116  0.30519514  0.60488173     0.10400
C1556       C  0.87792412  0.29857946  0.55072595     0.04100
C1557       C  0.87801247  0.28971909  0.51980825    -0.04600
C1558       C  0.87134436  0.30076657  0.49228989    -0.23000
C1559       C  0.86443973  0.32137664  0.49644783     0.13300
C1560       C  0.86444774  0.33031340  0.52758059    -0.12200
N1561       N  0.88505101  0.28638615  0.57750833     0.65000
H1562       H  0.88326964  0.27396915  0.51756461     0.12900
N1563       N  0.85736301  0.33360416  0.46970000     0.61600
H1564       H  0.85878912  0.34586744  0.53049593     0.09000
O1565       O  0.84897002  0.29886413  0.67761833    -0.39800
O1566       O  0.82387508  0.31971451  0.66532811    -0.39000
O1567       O  0.88500247  0.37467315  0.56075651    -0.39000
O1568       O  0.91132434  0.35522839  0.57230322    -0.36700
O1569       O  0.83819889  0.33580057  0.46564091    -0.37600
O1570       O  0.86946421  0.34679972  0.45744113    -0.33800
O1571       O  0.87340289  0.27246346  0.58885088    -0.35200
O1572       O  0.90421385  0.28507449  0.58237298    -0.39500
C1573       C  0.84926587  0.34400520  0.90283558    -0.13200
C1574       C  0.82863302  0.35013075  0.90618636     0.17200
C1575       C  0.81716299  0.35464267  0.87784421     0.03500
C1576       C  0.82668228  0.35393063  0.84718275    -0.11700
C1577       C  0.84773643  0.34926284  0.84391520    -0.02700
C1578       C  0.85888392  0.34351404  0.87217926     0.02800
C1579       C  0.82037926  0.35399297  0.93946850     0.09600
N1580       N  0.79636910  0.36178695  0.87967157     0.66000
H1581       H  0.81779455  0.35843260  0.82609164     0.18900
N1582       N  0.88010697  0.33768369  0.87060417     0.76400
H1583       H  0.85819596  0.34035876  0.92429370     0.10400
C1584       C  0.80547013  0.34103699  0.95418642     0.04100
C1585       C  0.79814120  0.34552326  0.98540133    -0.04600
C1586       C  0.80519830  0.36280484  0.00250320    -0.23000
C1587       C  0.82068076  0.37531492  0.98866871     0.13300
C1588       C  0.82818215  0.37083456  0.95734722    -0.12200
N1589       N  0.79765242  0.32308825  0.93828203     0.65000
H1590       H  0.78630016  0.33571446  0.99591578     0.12900
N1591       N  0.82907363  0.39230033  0.00649509     0.61600
H1592       H  0.84006984  0.38061320  0.94679570     0.09000
O1593       O  0.88470514  0.31874913  0.87203202    -0.39800
O1594       O  0.89373429  0.35096064  0.87719894    -0.39000
O1595       O  0.79312142  0.38101834  0.87949277    -0.39000
O1596       O  0.78208203  0.34982177  0.87079358    -0.36700
O1597       O  0.83987551  0.38877859  0.03145544    -0.37600
O1598       O  0.82185160  0.41018766  0.00199690    -0.33800
O1599       O  0.80453545  0.30567074  0.94690345    -0.35200
O1600       O  0.77989332  0.32396787  0.92585131    -0.39500
C1601       C  0.87481437  0.46956012  0.75552912    -0.13200
C1602       C  0.85502024  0.47607823  0.74663334     0.17200
C1603       C  0.83944778  0.46122653  0.74178157     0.03500
C1604       C  0.84412186  0.44018210  0.74480911    -0.11700
C1605       C  0.86414627  0.43353369  0.75266909    -0.02700
C1606       C  0.87954358  0.44858888  0.75864844     0.02800
C1607       C  0.85244592  0.49816087  0.73840795     0.09600
N1608       N  0.81900594  0.46702347  0.73273669     0.66000
H1609       H  0.83204896  0.42902633  0.74036913     0.18900
N1610       N  0.90019845  0.44311428  0.76714680     0.76400
H1611       H  0.88688917  0.48086644  0.75907253     0.10400
C1612       C  0.84324550  0.51234402  0.75990576     0.04100
C1613       C  0.84519735  0.53357776  0.75402302    -0.04600
C1614       C  0.85668995  0.54106653  0.72745361    -0.23000
C1615       C  0.86520794  0.52678214  0.70522748     0.13300
C1616       C  0.86286713  0.50556925  0.71079556    -0.12200
N1617       N  0.83316858  0.50567783  0.78903737     0.65000
H1618       H  0.83867405  0.54421453  0.77143434     0.12900
N1619       N  0.87631810  0.53333409  0.67694341     0.61600
H1620       H  0.87008191  0.49479030  0.69428445     0.09000
O1621       O  0.90565714  0.44450809  0.79653917    -0.39800
O1622       O  0.91388313  0.44322842  0.74525595    -0.39000
O1623       O  0.81364032  0.46515623  0.70337020    -0.39000
O1624       O  0.80523166  0.46728624  0.75446387    -0.36700
O1625       O  0.89577136  0.53273940  0.67733579    -0.37600
O1626       O  0.86715720  0.53335221  0.64985367    -0.33800
O1627       O  0.84291397  0.50656923  0.81557366    -0.35200
O1628       O  0.81371799  0.50546089  0.78975150    -0.39500
C1629       C  0.97857283  0.36981648  0.75312148    -0.13200
C1630       C  0.98616100  0.34958626  0.75606912     0.17200
C1631       C  0.97201303  0.33307841  0.75883362     0.03500
C1632       C  0.95078594  0.33713881  0.75835175    -0.11700
C1633       C  0.94324718  0.35745338  0.75592311    -0.02700
C1634       C  0.95749722  0.37395833  0.75374472     0.02800
C1635       C  0.00882420  0.34735383  0.75944470     0.09600
N1636       N  0.97860564  0.31224897  0.76368455     0.66000
H1637       H  0.94021939  0.32431498  0.76046895     0.18900
N1638       N  0.95112687  0.39510525  0.75278804     0.76400
H1639       H  0.98917760  0.38265689  0.75129571     0.10400
C1640       C  0.02126009  0.33730967  0.73613207     0.04100
C1641       C  0.04267277  0.34016379  0.73662508    -0.04600
C1642       C  0.05201887  0.35363107  0.75900901    -0.23000
C1643       C  0.03957875  0.36318336  0.78287770     0.13300
C1644       C  0.01838274  0.35942369  0.78344676    -0.12200
N1645       N  0.01258560  0.32561846  0.71009154     0.65000
H1646       H  0.05182083  0.33272862  0.71807192     0.12900
N1647       N  0.04772199  0.37788475  0.80535510     0.61600
H1648       H  0.00905871  0.36739283  0.80125335     0.09000
O1649       O  0.95181070  0.40470694  0.72601040    -0.39800
O1650       O  0.95103587  0.40532657  0.77891837    -0.39000
O1651       O  0.97907653  0.30522101  0.79237675    -0.39000
O1652       O  0.97666844  0.29968496  0.74045516    -0.36700
O1653       O  0.04694624  0.39685505  0.79813093    -0.37600
O1654       O  0.04972821  0.37270740  0.83482658    -0.33800
O1655       O  0.01018926  0.33436795  0.68284484    -0.35200
O1656       O  0.01431077  0.30619556  0.71091296    -0.39500
loop_ 
_geom_bond_atom_site_label_1 
_geom_bond_atom_site_label_2 
_geom_bond_distance 
_geom_bond_site_symmetry_2 
_ccdc_geom_bond_type 
O1            C4   1.262       .  A
O1           Cd6   2.443       .  S
C2           O11   1.262       .  A
C2            O7   1.267       .  A
C2         C1605   1.482       .  S
O3            C9   1.263       .  A
O3           Cd6   2.485       .  S
C4           O12   1.267       .  A
C4         C1549   1.490       .  S
C5           O10   1.263       .  A
C5            O8   1.269       .  A
C5         C1633   1.480       .  S
Cd6          O13   2.486       .  S
Cd6          O12   2.538       .  S
Cd6          O11   2.460       .  S
Cd6           O7   2.457       .  S
Cd6          O10   2.434       .  S
Cd6           O8   2.449       .  S
C9           O13   1.267       .  A
C9         C1577   1.491       .  S
O14          C17   1.263       .  A
O14         Cd19   2.429       .  S
C15          O24   1.266       .  A
C15          O20   1.266       .  A
C15        C1521   1.484       .  S
O16          C22   1.265       .  A
O16         Cd19   2.441       .  S
C17          O25   1.267       .  A
C17        C1493   1.482       .  S
C18          O23   1.262       .  A
C18          O21   1.264       .  A
C18        C1474   1.486       .  S
Cd19         O26   2.466       .  S
Cd19         O25   2.507       .  S
Cd19         O24   2.434       .  S
Cd19         O20   2.510       .  S
Cd19         O23   2.515       .  S
Cd19         O21   2.449       .  S
C22          O26   1.265       .  A
C22        C1642   1.482       .  S
O27          C30   1.264       .  A
O27         Cd32   2.407       .  S
C28          O37   1.264       .  A
C28          O33   1.265       .  A
C28        C1437   1.486       .  S
O29          C35   1.265       .  A
O29         Cd32   2.474       .  S
C30          O38   1.269       .  A
C30        C1409   1.491       .  S
C31          O36   1.266       .  A
C31          O34   1.261       .  A
C31        C1381   1.484       .  S
Cd32         O39   2.443       .  S
Cd32         O38   2.542       .  S
Cd32         O37   2.429       .  S
Cd32         O33   2.524       .  S
Cd32         O36   2.444       .  S
Cd32         O34   2.493       .  S
C35          O39   1.267       .  A
C35        C1614   1.479       .  S
O40          C43   1.268       .  A
O40         Cd45   2.436       .  S
C41          O50   1.266       .  A
C41          O46   1.263       .  A
C41        C1362   1.487       .  S
O42          C48   1.268       .  A
O42         Cd45   2.438       .  S
C43          O51   1.263       .  A
C43        C1530   1.482       .  S
C44          O49   1.262       .  A
C44          O47   1.266       .  A
C44        C1325   1.488       .  S
Cd45         O52   2.445       .  S
Cd45         O51   2.474       .  S
Cd45         O50   2.446       .  S
Cd45         O46   2.506       .  S
Cd45         O49   2.506       .  S
Cd45         O47   2.478       .  S
C48          O52   1.265       .  A
C48        C1446   1.479       .  S
O53          C56   1.264       .  A
O53         Cd58   2.425       .  S
C54          O63   1.265       .  A
C54          O59   1.267       .  A
C54        C1269   1.479       .  S
O55          C61   1.261       .  A
O55         Cd58   2.449       .  S
C56          O64   1.267       .  A
C56        C1213   1.486       .  S
C57          O62   1.265       .  A
C57          O60   1.263       .  A
C57        C1297   1.473       .  S
Cd58         O65   2.491       .  S
Cd58         O64   2.508       .  S
Cd58         O63   2.462       .  S
Cd58         O59   2.445       .  S
Cd58         O62   2.491       .  S
Cd58         O60   2.412       .  S
C61          O65   1.268       .  A
C61        C1241   1.481       .  S
O66          C69   1.265       .  A
O66         Cd71   2.533       .  S
C67          O76   1.261       .  A
C67          O72   1.269       .  A
C67        C1306   1.479       .  S
O68          C74   1.268       .  A
O68         Cd71   2.450       .  S
C69          O77   1.264       .  A
C69        C1157   1.490       .  S
C70          O75   1.264       .  A
C70          O73   1.265       .  A
C70        C1129   1.484       .  S
Cd71         O78   2.466       .  S
Cd71         O77   2.436       .  S
Cd71         O76   2.455       .  S
Cd71         O72   2.442       .  S
Cd71         O75   2.421       .  S
Cd71         O73   2.508       .  S
C74          O78   1.263       .  A
C74        C1185   1.482       .  S
O79          C82   1.264       .  A
O79         Cd84   2.463       .  S
C80          O89   1.266       .  A
C80          O85   1.264       .  A
C80        C1073   1.486       .  S
O81          C87   1.267       .  A
O81         Cd84   2.434       .  S
C82          O90   1.262       .  A
C82        C1101   1.486       .  S
C83          O88   1.264       .  A
C83          O86   1.266       .  A
C83        C1054   1.491       .  S
Cd84         O91   2.454       .  S
Cd84         O90   2.508       .  S
Cd84         O89   2.521       .  S
Cd84         O85   2.417       .  S
Cd84         O88   2.507       .  S
Cd84         O86   2.469       .  S
C87          O91   1.264       .  A
C87        C1194   1.479       .  S
O92          C95   1.266       .  A
O92         Cd97   2.517       .  S
C93         O102   1.265       .  A
C93          O98   1.263       .  A
C93         C989   1.479       .  S
O94         C100   1.262       .  A
O94         Cd97   2.409       .  S
C95         O103   1.265       .  A
C95        C1278   1.486       .  S
C96         O101   1.266       .  A
C96          O99   1.266       .  A
C96        C1110   1.485       .  S
Cd97        O104   2.519       .  S
Cd97        O103   2.420       .  S
Cd97        O102   2.490       .  S
Cd97         O98   2.420       .  S
Cd97        O101   2.506       .  S
Cd97         O99   2.427       .  S
C100        O104   1.267       .  A
C100       C1026   1.484       .  S
O105        C108   1.264       .  A
O105       Cd110   2.442       .  S
C106        O115   1.266       .  A
C106        O111   1.264       .  A
C106       C1390   1.491       .  S
O107        C113   1.267       .  A
O107       Cd110   2.542       .  S
C108        O116   1.268       .  A
C108        C933   1.498       .  S
C109        O114   1.267       .  A
C109        O112   1.264       .  A
C109        C905   1.494       .  S
Cd110       O117   2.474       .  S
Cd110       O116   2.554       .  S
Cd110       O115   2.471       .  S
Cd110       O111   2.521       .  S
Cd110       O114   2.523       .  S
Cd110       O112   2.453       .  S
C113        O117   1.265       .  A
C113        C961   1.496       .  S
O118        C121   1.264       .  A
O118       Cd123   2.510       .  S
C119        O128   1.264       .  A
C119        O124   1.266       .  A
C119       C1353   1.481       .  S
O120        C126   1.265       .  A
O120       Cd123   2.475       .  S
C121        O129   1.267       .  A
C121        C877   1.494       .  S
C122        O127   1.269       .  A
C122        O125   1.263       .  A
C122        C970   1.493       .  S
Cd123       O130   2.528       .  S
Cd123       O129   2.481       .  S
Cd123       O128   2.465       .  S
Cd123       O124   2.438       .  S
Cd123       O127   2.495       .  S
Cd123       O125   2.480       .  S
C126        O130   1.265       .  A
C126        C858   1.494       .  S
O131        C134   1.264       .  A
O131       Cd136   2.505       .  S
C132        O141   1.266       .  A
C132        O137   1.263       .  A
C132       C1334   1.488       .  S
O133        C139   1.264       .  A
O133       Cd136   2.493       .  S
C134        O142   1.266       .  A
C134        C886   1.496       .  S
C135        O140   1.270       .  A
C135        O138   1.264       .  A
C135        C830   1.496       .  S
Cd136       O143   2.498       .  S
Cd136       O142   2.493       .  S
Cd136       O141   2.520       .  S
Cd136       O137   2.428       .  S
Cd136       O140   2.569       .  S
Cd136       O138   2.423       .  S
C139        O143   1.268       .  A
C139        C802   1.494       .  S
O144        C147   1.266       .  A
O144       Cd149   2.480       .  S
C145        O154   1.263       .  A
C145        O150   1.269       .  A
C145       C1465   1.488   1_554  S
O146        C152   1.269       .  A
O146       Cd149   2.495       .  S
C147        O155   1.268       .  A
C147        C774   1.502       .  S
C148        O153   1.270       .  A
C148        O151   1.266       .  A
C148        C737   1.495       .  S
Cd149       O156   2.495       .  S
Cd149       O155   2.547       .  S
Cd149       O154   2.489       .  S
Cd149       O150   2.471       .  S
Cd149       O153   2.545       .  S
Cd149       O151   2.421       .  S
C152        O156   1.264       .  A
C152        C821   1.493       .  S
O157        C160   1.267       .  A
O157       Cd162   2.540       .  S
C158        O167   1.270       .  A
C158        O163   1.264       .  A
C158       C1418   1.487   1_554  S
O159        C165   1.270       .  A
O159       Cd162   2.550       .  S
C160        O168   1.267       .  A
C160        C942   1.502       .  S
C161        O166   1.263       .  A
C161        O164   1.270       .  A
C161        C690   1.492       .  S
Cd162       O169   2.440       .  S
Cd162       O168   2.491       .  S
Cd162       O167   2.465       .  S
Cd162       O163   2.460       .  S
Cd162       O166   2.470       .  S
Cd162       O164   2.502       .  S
C165        O169   1.266       .  A
C165        C718   1.494       .  S
O170        C173   1.264       .  A
O170       Cd175   2.526       .  S
C171        O180   1.266       .  A
C171        O176   1.263       .  A
C171       C1586   1.475       .  S
O172        C178   1.264       .  A
O172       Cd175   2.455       .  S
C173        O181   1.269       .  A
C173        C653   1.500       .  S
C174        O179   1.267       .  A
C174        O177   1.265       .  A
C174        C709   1.501       .  S
Cd175       O182   2.557       .  S
Cd175       O181   2.487       .  S
Cd175       O180   2.479       .  S
Cd175       O176   2.445       .  S
Cd175       O179   2.569       .  S
Cd175       O177   2.478       .  S
C178        O182   1.268       .  A
C178        C625   1.500       .  S
O183        C186   1.262       .  A
O183       Cd188   2.512       .  S
C184        O193   1.264       .  A
C184        O189   1.264       .  A
C184       C1558   1.487       .  S
O185        C191   1.265       .  A
O185       Cd188   2.461       .  S
C186        O194   1.271       .  A
C186        C662   1.503       .  S
C187        O192   1.266       .  A
C187        O190   1.264       .  A
C187        C606   1.493       .  S
Cd188       O195   2.570       .  S
Cd188       O194   2.525       .  S
Cd188       O193   2.433       .  S
Cd188       O189   2.519       .  S
Cd188       O192   2.549       .  S
Cd188       O190   2.476       .  S
C191        O195   1.266       .  A
C191        C569   1.502       .  S
O196        C199   1.263       .  A
O196       Cd201   2.527       .  S
C197        O206   1.269       .  A
C197        O202   1.266       .  A
C197       C1502   1.479       .  S
O198        C204   1.269       .  A
O198       Cd201   2.564       .  S
C199        O207   1.268       .  A
C199        C765   1.501       .  S
C200        O205   1.270       .  A
C200        O203   1.259       .  A
C200        C550   1.484       .  S
Cd201       O208   2.412       .  S
Cd201       O207   2.511       .  S
Cd201       O206   2.450       .  S
Cd201       O202   2.463       .  S
Cd201       O205   2.543       .  S
Cd201       O203   2.458       .  S
C204        O208   1.263       .  A
C204        C597   1.494       .  S
O209        C212   1.263       .  A
O209       Cd214   2.474       .  S
C210        O219   1.262       .  A
C210        O215   1.264       .  A
C210        C998   1.477       .  S
O211        C217   1.269       .  A
O211       Cd214   2.522       .  S
C212        O220   1.268       .  A
C212        C494   1.491       .  S
C213        O218   1.268       .  A
C213        O216   1.268       .  A
C213        C914   1.503       .  S
Cd214       O221   2.497       .  S
Cd214       O220   2.484       .  S
Cd214       O219   2.435       .  S
Cd214       O215   2.509       .  S
Cd214       O218   2.476       .  S
Cd214       O216   2.553       .  S
C217        O221   1.262       .  A
C217        C513   1.495       .  S
O222        C225   1.265       .  A
O222       Cd227   2.468       .  S
C223        O232   1.265       .  A
C223        O228   1.267       .  A
C223       C1045   1.493       .  S
O224        C230   1.265       .  A
O224       Cd227   2.477       .  S
C225        O233   1.265       .  A
C225        C457   1.496       .  S
C226        O231   1.266       .  A
C226        O229   1.263       .  A
C226        C522   1.496       .  S
Cd227       O234   2.533       .  S
Cd227       O233   2.533       .  S
Cd227       O232   2.459       .  S
Cd227       O228   2.529       .  S
Cd227       O231   2.556       .  S
Cd227       O229   2.448       .  S
C230        O234   1.267       .  A
C230        C578   1.495       .  S
O235        C238   1.266       .  A
O235       Cd240   2.463       .  S
C236        O245   1.265       .  A
C236        O241   1.267       .  A
C236       C1082   1.488   1_556  S
O237        C243   1.264       .  A
O237       Cd240   2.455       .  S
C238        O246   1.267       .  A
C238        C466   1.497       .  S
C239        O244   1.269       .  A
C239        O242   1.265       .  A
C239        C429   1.497       .  S
Cd240       O247   2.561       .  S
Cd240       O246   2.537       .  S
Cd240       O245   2.425       .  S
Cd240       O241   2.527       .  S
Cd240       O244   2.490       .  S
Cd240       O242   2.511       .  S
C243        O247   1.269       .  A
C243        C634   1.501       .  S
O248        C251   1.268       .  A
O248       Cd253   2.443       .  S
C249        O258   1.267       .  A
C249        O254   1.263       .  A
C249        C410   1.502       .  S
O250        C256   1.270       .  A
O250       Cd253   2.542       .  S
C251        O259   1.265       .  A
C251       C1166   1.478       .  S
C252        O257   1.269       .  A
C252        O255   1.262       .  A
C252        C438   1.489       .  S
Cd253       O260   2.466       .  S
Cd253       O259   2.450       .  S
Cd253       O258   2.526       .  S
Cd253       O254   2.527       .  S
Cd253       O257   2.511       .  S
Cd253       O255   2.455       .  S
C256        O260   1.261       .  A
C256        C746   1.492       .  S
O261        C264   1.268       .  A
O261       Cd266   2.465       .  S
C262        O271   1.266       .  A
C262        O267   1.265       .  A
C262        C485   1.496       .  S
O263        C269   1.263       .  A
O263       Cd266   2.425       .  S
C264        O272   1.266       .  A
C264       C1017   1.489       .  S
C265        O270   1.268       .  A
C265        O268   1.265       .  A
C265        C373   1.493       .  S
Cd266       O273   2.542       .  S
Cd266       O272   2.503       .  S
Cd266       O271   2.534       .  S
Cd266       O267   2.471       .  S
Cd266       O270   2.517       .  S
Cd266       O268   2.448       .  S
C269        O273   1.269       .  A
C269        C681   1.491       .  S
O274        C277   1.262       .  A
O274       Cd279   2.438       .  S
C275        O284   1.269       .  A
C275        O280   1.266       .  A
C275        C345   1.500       .  S
O276        C282   1.270       .  A
O276       Cd279   2.500       .  S
C277        O285   1.269       .  A
C277       C1250   1.479   1_556  S
C278        O283   1.266       .  A
C278        O281   1.265       .  A
C278        C793   1.490       .  S
Cd279       O286   2.469       .  S
Cd279       O285   2.444       .  S
Cd279       O284   2.488       .  S
Cd279       O280   2.525       .  S
Cd279       O283   2.518       .  S
Cd279       O281   2.461       .  S
C282        O286   1.263       .  A
C282        C382   1.490       .  S
O287        C290   1.268       .  A
O287       Cd292   2.503       .  S
C288        O297   1.264       .  A
C288        O293   1.266       .  A
C288       C1222   1.483       .  S
O289        C295   1.266       .  A
O289       Cd292   2.560       .  S
C290        O298   1.265       .  A
C290        C354   1.500       .  S
C291        O296   1.270       .  A
C291        O294   1.264       .  A
C291        C317   1.490       .  S
Cd292       O299   2.434       .  S
Cd292       O298   2.520       .  S
Cd292       O297   2.412       .  S
Cd292       O293   2.514       .  S
Cd292       O296   2.500       .  S
Cd292       O294   2.474       .  S
C295        O299   1.264       .  A
C295        C849   1.496       .  S
O300        C303   1.267       .  A
O300       Cd305   2.488       .  S
C301        O310   1.262       .  A
C301        O306   1.268       .  A
C301       C1138   1.486       .  S
O302        C308   1.267       .  A
O302       Cd305   2.534       .  S
C303        O311   1.267       .  A
C303        C401   1.502       .  S
C304        O309   1.268       .  A
C304        O307   1.266       .  A
C304        C541   1.491       .  S
Cd305       O312   2.443       .  S
Cd305       O311   2.537       .  S
Cd305       O310   2.428       .  S
Cd305       O306   2.551       .  S
Cd305       O309   2.520       .  S
Cd305       O307   2.435       .  S
C308        O312   1.265       .  A
C308        C326   1.494       .  S
C313        C314   1.401       .  A
C313        C318   1.401       .  A
C313        H323   1.079       .  S
C314        C319   1.491   1_565  S
C314        C315   1.414       .  A
C315        C316   1.405       .  A
C315        N320   1.428       .  S
C316        C317   1.405       .  A
C316        H321   1.079       .  S
C317        C318   1.416       .  A
C318        N322   1.428       .  S
C319        C324   1.412       .  A
C319        C328   1.403       .  A
N320        O335   1.262       .  A
N320        O336   1.262       .  A
N322        O333   1.262       .  A
N322        O334   1.262       .  A
C324        C325   1.398       .  A
C324        N329   1.429       .  S
C325        C326   1.405       .  A
C325        H330   1.080       .  S
C326        C327   1.418       .  A
C327        C328   1.408       .  A
C327        N331   1.428       .  S
C328        H332   1.080       .  S
N329        O339   1.262       .  A
N329        O340   1.262       .  A
N331        O337   1.262       .  A
N331        O338   1.262       .  A
C341        C342   1.401       .  A
C341        C346   1.407       .  A
C341        H351   1.081       .  S
C342        C347   1.489       .  S
C342        C343   1.410       .  A
C343        C344   1.403       .  A
C343        N348   1.427       .  S
C344        C345   1.407       .  A
C344        H349   1.080       .  S
C345        C346   1.420       .  A
C346        N350   1.428       .  S
C347        C352   1.410       .  A
C347        C356   1.400       .  A
N348        O363   1.262       .  A
N348        O364   1.262       .  A
N350        O361   1.262       .  A
N350        O362   1.262       .  A
C352        C353   1.405       .  A
C352        N357   1.428       .  S
C353        C354   1.408       .  A
C353        H358   1.078       .  S
C354        C355   1.420       .  A
C355        C356   1.406       .  A
C355        N359   1.428       .  S
C356        H360   1.079       .  S
N357        O367   1.262       .  A
N357        O368   1.262       .  A
N359        O365   1.262       .  A
N359        O366   1.262       .  A
C369        C370   1.403       .  A
C369        C374   1.406       .  A
C369        H379   1.075       .  S
C370        C375   1.493       .  S
C370        C371   1.414       .  A
C371        C372   1.400       .  A
C371        N376   1.429       .  S
C372        C373   1.406       .  A
C372        H377   1.076       .  S
C373        C374   1.416       .  A
C374        N378   1.427       .  S
C375        C380   1.415       .  A
C375        C384   1.401       .  A
N376        O391   1.262       .  A
N376        O392   1.262       .  A
N378        O389   1.262       .  A
N378        O390   1.262       .  A
C380        C381   1.404       .  A
C380        N385   1.428       .  S
C381        C382   1.404       .  A
C381        H386   1.079       .  S
C382        C383   1.417       .  A
C383        C384   1.401       .  A
C383        N387   1.428       .  S
C384        H388   1.078       .  S
N385        O395   1.262       .  A
N385        O396   1.262       .  A
N387        O393   1.262       .  A
N387        O394   1.262       .  A
C397        C398   1.403       .  A
C397        C402   1.408       .  A
C397        H407   1.079       .  S
C398        C403   1.499       .  S
C398        C399   1.416       .  A
C399        C400   1.405       .  A
C399        N404   1.429       .  S
C400        C401   1.407       .  A
C400        H405   1.080       .  S
C401        C402   1.418       .  A
C402        N406   1.427       .  S
C403        C408   1.416       .  A
C403        C412   1.402       .  A
N404        O419   1.262       .  A
N404        O420   1.262       .  A
N406        O417   1.262       .  A
N406        O418   1.262       .  A
C408        C409   1.407       .  A
C408        N413   1.428       .  S
C409        C410   1.407       .  A
C409        H414   1.078       .  S
C410        C411   1.419       .  A
C411        C412   1.406       .  A
C411        N415   1.427       .  S
C412        H416   1.078       .  S
N413        O423   1.262       .  A
N413        O424   1.262       .  A
N415        O421   1.262       .  A
N415        O422   1.262       .  A
C425        C426   1.405       .  A
C425        C430   1.403       .  A
C425        H435   1.081       .  S
C426        C431   1.495       .  S
C426        C427   1.413       .  A
C427        C428   1.406       .  A
C427        N432   1.427       .  S
C428        C429   1.407       .  A
C428        H433   1.079       .  S
C429        C430   1.417       .  A
C430        N434   1.429       .  S
C431        C436   1.416       .  A
C431        C440   1.402       .  A
N432        O447   1.262       .  A
N432        O448   1.261       .  A
N434        O445   1.262       .  A
N434        O446   1.262       .  A
C436        C437   1.408       .  A
C436        N441   1.427       .  S
C437        C438   1.405       .  A
C437        H442   1.079       .  S
C438        C439   1.415       .  A
C439        C440   1.399       .  A
C439        N443   1.428       .  S
C440        H444   1.080       .  S
N441        O451   1.262       .  A
N441        O452   1.261       .  A
N443        O449   1.262       .  A
N443        O450   1.261       .  A
C453        C454   1.402       .  A
C453        C458   1.406       .  A
C453        H463   1.080       .  S
C454        C459   1.491       .  S
C454        C455   1.411       .  A
C455        C456   1.402       .  A
C455        N460   1.428       .  S
C456        C457   1.407       .  A
C456        H461   1.079       .  S
C457        C458   1.418       .  A
C458        N462   1.427       .  S
C459        C464   1.411       .  A
C459        C468   1.403       .  A
N460        O475   1.262       .  A
N460        O476   1.262       .  A
N462        O473   1.262       .  A
N462        O474   1.262       .  A
C464        C465   1.401       .  A
C464        N469   1.428       .  S
C465        C466   1.407       .  A
C465        H470   1.079       .  S
C466        C467   1.418       .  A
C467        C468   1.407       .  A
C467        N471   1.427       .  S
C468        H472   1.079       .  S
N469        O479   1.262       .  A
N469        O480   1.262       .  A
N471        O477   1.262       .  A
N471        O478   1.262       .  A
C481        C482   1.403       .  A
C481        C486   1.405       .  A
C481        H491   1.078       .  S
C482        C487   1.487       .  S
C482        C483   1.409       .  A
C483        C484   1.403       .  A
C483        N488   1.428       .  S
C484        C485   1.408       .  A
C484        H489   1.078       .  S
C485        C486   1.418       .  A
C486        N490   1.428       .  S
C487        C492   1.411       .  A
C487        C496   1.401       .  A
N488        O503   1.262       .  A
N488        O504   1.261       .  A
N490        O501   1.262       .  A
N490        O502   1.262       .  A
C492        C493   1.404       .  A
C492        N497   1.428       .  S
C493        C494   1.407       .  A
C493        H498   1.076       .  S
C494        C495   1.417       .  A
C495        C496   1.401       .  A
C495        N499   1.428       .  S
C496        H500   1.077       .  S
N497        O507   1.262       .  A
N497        O508   1.261       .  A
N499        O505   1.262       .  A
N499        O506   1.262       .  A
C509        C510   1.400       .  A
C509        C514   1.403       .  A
C509        H519   1.078       .  S
C510        C515   1.492   1_565  S
C510        C511   1.414       .  A
C511        C512   1.406       .  A
C511        N516   1.428       .  S
C512        C513   1.406       .  A
C512        H517   1.079       .  S
C513        C514   1.418       .  A
C514        N518   1.428       .  S
C515        C520   1.412       .  A
C515        C524   1.404       .  A
N516        O531   1.262       .  A
N516        O532   1.262       .  A
N518        O529   1.262       .  A
N518        O530   1.262       .  A
C520        C521   1.399       .  A
C520        N525   1.429       .  S
C521        C522   1.406       .  A
C521        H526   1.079       .  S
C522        C523   1.418       .  A
C523        C524   1.409       .  A
C523        N527   1.427       .  S
C524        H528   1.079       .  S
N525        O535   1.262       .  A
N525        O536   1.262       .  A
N527        O533   1.262       .  A
N527        O534   1.262       .  A
C537        C538   1.402       .  A
C537        C542   1.406       .  A
C537        H547   1.079       .  S
C538        C543   1.487       .  S
C538        C539   1.411       .  A
C539        C540   1.399       .  A
C539        N544   1.428       .  S
C540        C541   1.406       .  A
C540        H545   1.079       .  S
C541        C542   1.417       .  A
C542        N546   1.427       .  S
C543        C548   1.415       .  A
C543        C552   1.399       .  A
N544        O559   1.262       .  A
N544        O560   1.262       .  A
N546        O557   1.262       .  A
N546        O558   1.262       .  A
C548        C549   1.406       .  A
C548        N553   1.428       .  S
C549        C550   1.401       .  A
C549        H554   1.080       .  S
C550        C551   1.416       .  A
C551        C552   1.401       .  A
C551        N555   1.429       .  S
C552        H556   1.080       .  S
N553        O563   1.262       .  A
N553        O564   1.262       .  A
N555        O561   1.262       .  A
N555        O562   1.262       .  A
C565        C566   1.403       .  A
C565        C570   1.411       .  A
C565        H575   1.080       .  S
C566        C571   1.492       .  S
C566        C567   1.409       .  A
C567        C568   1.400       .  A
C567        N572   1.428       .  S
C568        C569   1.407       .  A
C568        H573   1.080       .  S
C569        C570   1.421       .  A
C570        N574   1.428       .  S
C571        C576   1.411       .  A
C571        C580   1.403       .  A
N572        O587   1.262       .  A
N572        O588   1.262       .  A
N574        O585   1.262       .  A
N574        O586   1.262       .  A
C576        C577   1.404       .  A
C576        N581   1.428       .  S
C577        C578   1.407       .  A
C577        H582   1.079       .  S
C578        C579   1.416       .  A
C579        C580   1.407       .  A
C579        N583   1.427       .  S
C580        H584   1.079       .  S
N581        O591   1.262       .  A
N581        O592   1.262       .  A
N583        O589   1.262       .  A
N583        O590   1.262       .  A
C593        C594   1.407       .  A
C593        C598   1.409       .  A
C593        H603   1.081       .  S
C594        C599   1.495   1_455  S
C594        C595   1.412       .  A
C595        C596   1.398       .  A
C595        N600   1.428       .  S
C596        C597   1.406       .  A
C596        H601   1.081       .  S
C597        C598   1.416       .  A
C598        N602   1.428       .  S
C599        C604   1.414       .  A
C599        C608   1.405       .  A
N600        O615   1.262       .  A
N600        O616   1.262       .  A
N602        O613   1.262       .  A
N602        O614   1.262       .  A
C604        C605   1.404       .  A
C604        N609   1.429       .  S
C605        C606   1.405       .  A
C605        H610   1.079       .  S
C606        C607   1.416       .  A
C607        C608   1.406       .  A
C607        N611   1.428       .  S
C608        H612   1.080       .  S
N609        O619   1.262       .  A
N609        O620   1.261       .  A
N611        O617   1.262       .  A
N611        O618   1.262       .  A
C621        C622   1.404       .  A
C621        C626   1.409       .  A
C621        H631   1.080       .  S
C622        C627   1.494   1_554  S
C622        C623   1.410   1_554  A
C623        C624   1.401   1_556  A
C623        N628   1.428       .  S
C624        C625   1.408       .  A
C624        H629   1.080       .  S
C625        C626   1.418       .  A
C626        N630   1.427       .  S
C627        C632   1.411       .  A
C627        C636   1.404       .  A
N628        O643   1.262       .  A
N628        O644   1.262       .  A
N630        O641   1.262       .  A
N630        O642   1.262       .  A
C632        C633   1.402       .  A
C632        N637   1.428   1_556  S
C633        C634   1.408       .  A
C633        H638   1.080       .  S
C634        C635   1.418       .  A
C635        C636   1.410       .  A
C635        N639   1.427       .  S
C636        H640   1.080       .  S
N637        O647   1.262       .  A
N637        O648   1.262       .  A
N639        O645   1.262       .  A
N639        O646   1.262       .  A
C649        C650   1.403       .  A
C649        C654   1.408       .  A
C649        H659   1.076       .  S
C650        C655   1.499       .  S
C650        C651   1.415       .  A
C651        C652   1.403       .  A
C651        N656   1.428       .  S
C652        C653   1.405       .  A
C652        H657   1.077       .  S
C653        C654   1.420       .  A
C654        N658   1.428       .  S
C655        C660   1.416       .  A
C655        C664   1.402       .  A
N656        O671   1.262       .  A
N656        O672   1.262       .  A
N658        O669   1.262       .  A
N658        O670   1.262       .  A
C660        C661   1.407       .  A
C660        N665   1.428       .  S
C661        C662   1.406       .  A
C661        H666   1.078       .  S
C662        C663   1.421       .  A
C663        C664   1.407       .  A
C663        N667   1.428       .  S
C664        H668   1.078       .  S
N665        O675   1.262       .  A
N665        O676   1.262       .  A
N667        O673   1.262       .  A
N667        O674   1.262       .  A
C677        C678   1.403       .  A
C677        C682   1.409       .  A
C677        H687   1.079       .  S
C678        C683   1.485   1_556  S
C678        C679   1.409       .  A
C679        C680   1.397       .  A
C679        N684   1.428   1_556  S
C680        C681   1.406       .  A
C680        H685   1.079       .  S
C681        C682   1.416       .  A
C682        N686   1.427       .  S
C683        C688   1.411       .  A
C683        C692   1.398   1_554  A
N684        O699   1.262       .  A
N684        O700   1.262       .  A
N686        O697   1.261       .  A
N686        O698   1.262       .  A
C688        C689   1.405       .  A
C688        N693   1.427       .  S
C689        C690   1.406       .  A
C689        H694   1.078       .  S
C690        C691   1.419       .  A
C691        C692   1.400   1_554  A
C691        N695   1.428       .  S
C692        H696   1.079       .  S
N693        O703   1.262       .  A
N693        O704   1.262       .  A
N695        O701   1.262   1_554  A
N695        O702   1.262       .  A
C705        C706   1.404       .  A
C705        C710   1.409       .  A
C705        H715   1.080       .  S
C706        C711   1.496       .  S
C706        C707   1.412       .  A
C707        C708   1.404       .  A
C707        N712   1.428       .  S
C708        C709   1.407       .  A
C708        H713   1.080       .  S
C709        C710   1.419       .  A
C710        N714   1.428       .  S
C711        C716   1.412       .  A
C711        C720   1.407       .  A
N712        O727   1.262       .  A
N712        O728   1.261       .  A
N714        O725   1.262       .  A
N714        O726   1.262       .  A
C716        C717   1.401       .  A
C716        N721   1.428       .  S
C717        C718   1.405       .  A
C717        H722   1.079       .  S
C718        C719   1.416       .  A
C719        C720   1.410       .  A
C719        N723   1.428       .  S
C720        H724   1.079       .  S
N721        O731   1.262       .  A
N721        O732   1.261       .  A
N723        O729   1.262       .  A
N723        O730   1.262       .  A
C733        C734   1.404       .  A
C733        C738   1.411       .  A
C733        H743   1.078       .  S
C734        C739   1.489   1_554  S
C734        C735   1.409       .  A
C735        C736   1.396       .  A
C735        N740   1.429       .  S
C736        C737   1.406       .  A
C736        H741   1.078       .  S
C737        C738   1.418       .  A
C738        N742   1.427       .  S
C739        C744   1.414       .  A
C739        C748   1.398   1_556  A
N740        O755   1.262       .  A
N740        O756   1.262   1_554  A
N742        O753   1.262       .  A
N742        O754   1.262       .  A
C744        C745   1.409       .  A
C744        N749   1.428       .  S
C745        C746   1.406       .  A
C745        H750   1.079       .  S
C746        C747   1.418       .  A
C747        C748   1.399   1_556  A
C747        N751   1.429   1_556  S
C748        H752   1.080       .  S
N749        O759   1.262       .  A
N749        O760   1.262       .  A
N751        O757   1.262       .  A
N751        O758   1.262       .  A
C761        C762   1.403       .  A
C761        C766   1.408       .  A
C761        H771   1.077       .  S
C762        C767   1.497       .  S
C762        C763   1.414       .  A
C763        C764   1.405       .  A
C763        N768   1.428       .  S
C764        C765   1.406       .  A
C764        H769   1.078       .  S
C765        C766   1.420       .  A
C766        N770   1.428       .  S
C767        C772   1.413       .  A
C767        C776   1.403       .  A
N768        O783   1.262       .  A
N768        O784   1.262       .  A
N770        O781   1.262       .  A
N770        O782   1.262       .  A
C772        C773   1.405       .  A
C772        N777   1.428       .  S
C773        C774   1.408       .  A
C773        H778   1.079       .  S
C774        C775   1.418       .  A
C775        C776   1.408       .  A
C775        N779   1.427       .  S
C776        H780   1.079       .  S
N777        O787   1.262       .  A
N777        O788   1.262       .  A
N779        O785   1.262       .  A
N779        O786   1.262       .  A
C789        C790   1.403       .  A
C789        C794   1.405       .  A
C789        H799   1.076   1_556  S
C790        C795   1.495       .  S
C790        C791   1.418       .  A
C791        C792   1.402       .  A
C791        N796   1.430       .  S
C792        C793   1.403       .  A
C792        H797   1.078       .  S
C793        C794   1.416       .  A
C794        N798   1.427       .  S
C795        C800   1.416   1_556  A
C795        C804   1.402   1_556  A
N796        O811   1.262       .  A
N796        O812   1.262       .  A
N798        O809   1.261       .  A
N798        O810   1.261   1_556  A
C800        C801   1.406       .  A
C800        N805   1.429   1_554  S
C801        C802   1.406       .  A
C801        H806   1.077       .  S
C802        C803   1.417       .  A
C803        C804   1.401       .  A
C803        N807   1.428       .  S
C804        H808   1.076       .  S
N805        O815   1.262   1_556  A
N805        O816   1.262       .  A
N807        O813   1.262       .  A
N807        O814   1.262       .  A
C817        C818   1.403       .  A
C817        C822   1.401       .  A
C817        H827   1.076       .  S
C818        C823   1.498       .  S
C818        C819   1.417       .  A
C819        C820   1.405       .  A
C819        N824   1.428       .  S
C820        C821   1.405       .  A
C820        H825   1.078       .  S
C821        C822   1.416       .  A
C822        N826   1.428       .  S
C823        C828   1.416       .  A
C823        C832   1.406       .  A
N824        O839   1.262       .  A
N824        O840   1.262       .  A
N826        O837   1.262       .  A
N826        O838   1.262       .  A
C828        C829   1.397       .  A
C828        N833   1.430       .  S
C829        C830   1.405       .  A
C829        H834   1.079       .  S
C830        C831   1.417       .  A
C831        C832   1.410       .  A
C831        N835   1.427       .  S
C832        H836   1.077       .  S
N833        O843   1.262       .  A
N833        O844   1.262       .  A
N835        O841   1.262       .  A
N835        O842   1.262       .  A
C845        C846   1.403       .  A
C845        C850   1.410       .  A
C845        H855   1.078       .  S
C846        C851   1.488       .  S
C846        C847   1.410       .  A
C847        C848   1.396       .  A
C847        N852   1.429       .  S
C848        C849   1.406       .  A
C848        H853   1.079       .  S
C849        C850   1.420       .  A
C850        N854   1.427       .  S
C851        C856   1.410       .  A
C851        C860   1.401       .  A
N852        O867   1.262       .  A
N852        O868   1.261       .  A
N854        O865   1.262       .  A
N854        O866   1.262       .  A
C856        C857   1.403       .  A
C856        N861   1.428       .  S
C857        C858   1.408       .  A
C857        H862   1.078       .  S
C858        C859   1.417       .  A
C859        C860   1.403       .  A
C859        N863   1.427       .  S
C860        H864   1.078       .  S
N861        O871   1.262       .  A
N861        O872   1.262       .  A
N863        O869   1.262       .  A
N863        O870   1.262       .  A
C873        C874   1.404       .  A
C873        C878   1.405       .  A
C873        H883   1.074       .  S
C874        C879   1.500       .  S
C874        C875   1.419       .  A
C875        C876   1.402       .  A
C875        N880   1.430       .  S
C876        C877   1.404       .  A
C876        H881   1.077       .  S
C877        C878   1.417       .  A
C878        N882   1.427       .  S
C879        C884   1.420       .  A
C879        C888   1.402       .  A
N880        O895   1.262       .  A
N880        O896   1.262       .  A
N882        O893   1.262       .  A
N882        O894   1.262       .  A
C884        C885   1.405       .  A
C884        N889   1.430       .  S
C885        C886   1.406       .  A
C885        H890   1.078       .  S
C886        C887   1.416       .  A
C887        C888   1.402       .  A
C887        N891   1.427       .  S
C888        H892   1.075       .  S
N889        O899   1.262       .  A
N889        O900   1.262       .  A
N891        O897   1.262       .  A
N891        O898   1.262       .  A
C901        C902   1.404       .  A
C901        C906   1.405       .  A
C901        H911   1.076       .  S
C902        C907   1.498       .  S
C902        C903   1.414       .  A
C903        C904   1.403       .  A
C903        N908   1.428       .  S
C904        C905   1.407       .  A
C904        H909   1.078       .  S
C905        C906   1.415       .  A
C906        N910   1.427       .  S
C907        C912   1.413       .  A
C907        C916   1.405       .  A
N908        O923   1.262       .  A
N908        O924   1.262       .  A
N910        O921   1.262       .  A
N910        O922   1.262       .  A
C912        C913   1.402       .  A
C912        N917   1.429       .  S
C913        C914   1.407       .  A
C913        H918   1.079       .  S
C914        C915   1.420       .  A
C915        C916   1.410       .  A
C915        N919   1.428       .  S
C916        H920   1.078       .  S
N917        O927   1.262       .  A
N917        O928   1.261       .  A
N919        O925   1.262       .  A
N919        O926   1.262       .  A
C929        C930   1.405       .  A
C929        C934   1.409       .  A
C929        H939   1.080       .  S
C930        C935   1.493       .  S
C930        C931   1.410       .  A
C931        C932   1.401       .  A
C931        N936   1.428       .  S
C932        C933   1.407       .  A
C932        H937   1.079       .  S
C933        C934   1.418       .  A
C934        N938   1.428       .  S
C935        C940   1.411       .  A
C935        C944   1.402       .  A
N936        O951   1.262       .  A
N936        O952   1.261       .  A
N938        O949   1.262       .  A
N938        O950   1.262       .  A
C940        C941   1.405       .  A
C940        N945   1.428       .  S
C941        C942   1.408       .  A
C941        H946   1.080       .  S
C942        C943   1.419       .  A
C943        C944   1.407       .  A
C943        N947   1.428       .  S
C944        H948   1.081       .  S
N945        O955   1.262       .  A
N945        O956   1.261       .  A
N947        O953   1.262       .  A
N947        O954   1.262       .  A
C957        C958   1.404       .  A
C957        C962   1.406       .  A
C957        H967   1.076       .  S
C958        C963   1.498   1_655  S
C958        C959   1.418       .  A
C959        C960   1.402       .  A
C959        N964   1.430       .  S
C960        C961   1.405       .  A
C960        H965   1.078       .  S
C961        C962   1.416       .  A
C962        N966   1.427       .  S
C963        C968   1.418       .  A
C963        C972   1.402       .  A
N964        O979   1.262       .  A
N964        O980   1.262       .  A
N966        O977   1.262       .  A
N966        O978   1.262       .  A
C968        C969   1.405       .  A
C968        N973   1.429       .  S
C969        C970   1.405       .  A
C969        H974   1.080       .  S
C970        C971   1.417       .  A
C971        C972   1.400       .  A
C971        N975   1.428       .  S
C972        H976   1.077       .  S
N973        O983   1.262       .  A
N973        O984   1.262       .  A
N975        O981   1.262       .  A
N975        O982   1.262       .  A
C985        C986   1.402       .  A
C985        C990   1.401       .  A
C985        H995   1.079       .  S
C986        C991   1.479       .  S
C986        C987   1.409       .  A
C987        C988   1.396       .  A
C987        N992   1.428       .  S
C988        C989   1.404       .  A
C988        H993   1.079       .  S
C989        C990   1.414       .  A
C990        N994   1.428       .  S
C991        C996   1.409       .  A
C991       C1000   1.403       .  A
N992       O1007   1.262       .  A
N992       O1008   1.262       .  A
N994       O1005   1.262       .  A
N994       O1006   1.262       .  A
C996        C997   1.396       .  A
C996       N1001   1.428       .  S
C997        C998   1.403       .  A
C997       H1002   1.081       .  S
C998        C999   1.412       .  A
C999       C1000   1.402       .  A
C999       N1003   1.428       .  S
C1000      H1004   1.080       .  S
N1001      O1011   1.262       .  A
N1001      O1012   1.262       .  A
N1003      O1009   1.262       .  A
N1003      O1010   1.262       .  A
C1013      C1014   1.403       .  A
C1013      C1018   1.401       .  A
C1013      H1023   1.082       .  S
C1014      C1019   1.483       .  S
C1014      C1015   1.409       .  A
C1015      C1016   1.401       .  A
C1015      N1020   1.428       .  S
C1016      C1017   1.406   1_554  A
C1016      H1021   1.080   1_554  S
C1017      C1018   1.416   1_556  A
C1018      N1022   1.428       .  S
C1019      C1024   1.409       .  A
C1019      C1028   1.404       .  A
N1020      O1035   1.262       .  A
N1020      O1036   1.261       .  A
N1022      O1033   1.262       .  A
N1022      O1034   1.262       .  A
C1024      C1025   1.398       .  A
C1024      N1029   1.428       .  S
C1025      C1026   1.407       .  A
C1025      H1030   1.079       .  S
C1026      C1027   1.413       .  A
C1027      C1028   1.401       .  A
C1027      N1031   1.428       .  S
C1028      H1032   1.079       .  S
N1029      O1039   1.262       .  A
N1029      O1040   1.262       .  A
N1031      O1037   1.262       .  A
N1031      O1038   1.262       .  A
C1041      C1042   1.407       .  A
C1041      C1046   1.406       .  A
C1041      H1051   1.053       .  S
C1042      C1047   1.487       .  S
C1042      C1043   1.409       .  A
C1043      C1044   1.404       .  A
C1043      N1048   1.428       .  S
C1044      C1045   1.411       .  A
C1044      H1049   1.057       .  S
C1045      C1046   1.415       .  A
C1046      N1050   1.429       .  S
C1047      C1052   1.412       .  A
C1047      C1056   1.402       .  A
N1048      O1063   1.262       .  A
N1048      O1064   1.261       .  A
N1050      O1061   1.262       .  A
N1050      O1062   1.262       .  A
C1052      C1053   1.402       .  A
C1052      N1057   1.428       .  S
C1053      C1054   1.406       .  A
C1053      H1058   1.080       .  S
C1054      C1055   1.416       .  A
C1055      C1056   1.402       .  A
C1055      N1059   1.428       .  S
C1056      H1060   1.082       .  S
N1057      O1067   1.262       .  A
N1057      O1068   1.261       .  A
N1059      O1065   1.262       .  A
N1059      O1066   1.262       .  A
C1069      C1070   1.403       .  A
C1069      C1074   1.403       .  A
C1069      H1079   1.077       .  S
C1070      C1075   1.485       .  S
C1070      C1071   1.411       .  A
C1071      C1072   1.395       .  A
C1071      N1076   1.429       .  S
C1072      C1073   1.405       .  A
C1072      H1077   1.078       .  S
C1073      C1074   1.416       .  A
C1074      N1078   1.428       .  S
C1075      C1080   1.412       .  A
C1075      C1084   1.403       .  A
N1076      O1091   1.262       .  A
N1076      O1092   1.262       .  A
N1078      O1089   1.262       .  A
N1078      O1090   1.262       .  A
C1080      C1081   1.396       .  A
C1080      N1085   1.429       .  S
C1081      C1082   1.405       .  A
C1081      H1086   1.079       .  S
C1082      C1083   1.417       .  A
C1083      C1084   1.403       .  A
C1083      N1087   1.427       .  S
C1084      H1088   1.078       .  S
N1085      O1095   1.262       .  A
N1085      O1096   1.262       .  A
N1087      O1093   1.262   1_554  A
N1087      O1094   1.262       .  A
C1097      C1098   1.401       .  A
C1097      C1102   1.400       .  A
C1097      H1107   1.079   1_545  S
C1098      C1103   1.481   1_545  S
C1098      C1099   1.410       .  A
C1099      C1100   1.398       .  A
C1099      N1104   1.428       .  S
C1100      C1101   1.405       .  A
C1100      H1105   1.080       .  S
C1101      C1102   1.416       .  A
C1102      N1106   1.428       .  S
C1103      C1108   1.411       .  A
C1103      C1112   1.401       .  A
N1104      O1119   1.262       .  A
N1104      O1120   1.262       .  A
N1106      O1117   1.262       .  A
N1106      O1118   1.262       .  A
C1108      C1109   1.395       .  A
C1108      N1113   1.429       .  S
C1109      C1110   1.404       .  A
C1109      H1114   1.080       .  S
C1110      C1111   1.417       .  A
C1111      C1112   1.403       .  A
C1111      N1115   1.427       .  S
C1112      H1116   1.079       .  S
N1113      O1123   1.262       .  A
N1113      O1124   1.262       .  A
N1115      O1121   1.262       .  A
N1115      O1122   1.262       .  A
C1125      C1126   1.404       .  A
C1125      C1130   1.403       .  A
C1125      H1135   1.078       .  S
C1126      C1131   1.487       .  S
C1126      C1127   1.413       .  A
C1127      C1128   1.395       .  A
C1127      N1132   1.429       .  S
C1128      C1129   1.404       .  A
C1128      H1133   1.080       .  S
C1129      C1130   1.415       .  A
C1130      N1134   1.428       .  S
C1131      C1136   1.413       .  A
C1131      C1140   1.404       .  A
N1132      O1147   1.262       .  A
N1132      O1148   1.262       .  A
N1134      O1145   1.262       .  A
N1134      O1146   1.262       .  A
C1136      C1137   1.398       .  A
C1136      N1141   1.429       .  S
C1137      C1138   1.405       .  A
C1137      H1142   1.081       .  S
C1138      C1139   1.413       .  A
C1139      C1140   1.402       .  A
C1139      N1143   1.427       .  S
C1140      H1144   1.078       .  S
N1141      O1151   1.262       .  A
N1141      O1152   1.262       .  A
N1143      O1149   1.262       .  A
N1143      O1150   1.262       .  A
C1153      C1154   1.403       .  A
C1153      C1158   1.405       .  A
C1153      H1163   1.077       .  S
C1154      C1159   1.485       .  S
C1154      C1155   1.413       .  A
C1155      C1156   1.396       .  A
C1155      N1160   1.430       .  S
C1156      C1157   1.405       .  A
C1156      H1161   1.078       .  S
C1157      C1158   1.417       .  A
C1158      N1162   1.427       .  S
C1159      C1164   1.414       .  A
C1159      C1168   1.401       .  A
N1160      O1175   1.262       .  A
N1160      O1176   1.261       .  A
N1162      O1173   1.262       .  A
N1162      O1174   1.262       .  A
C1164      C1165   1.400   1_554  A
C1164      N1169   1.428       .  S
C1165      C1166   1.403       .  A
C1165      H1170   1.080       .  S
C1166      C1167   1.412   1_556  A
C1167      C1168   1.396       .  A
C1167      N1171   1.427       .  S
C1168      H1172   1.078       .  S
N1169      O1179   1.262       .  A
N1169      O1180   1.262       .  A
N1171      O1177   1.262       .  A
N1171      O1178   1.262   1_554  A
C1181      C1182   1.399       .  A
C1181      C1186   1.399       .  A
C1181      H1191   1.079       .  S
C1182      C1187   1.478       .  S
C1182      C1183   1.411       .  A
C1183      C1184   1.397       .  A
C1183      N1188   1.428       .  S
C1184      C1185   1.403       .  A
C1184      H1189   1.079       .  S
C1185      C1186   1.417       .  A
C1186      N1190   1.428       .  S
C1187      C1192   1.411       .  A
C1187      C1196   1.400       .  A
N1188      O1203   1.262       .  A
N1188      O1204   1.262       .  A
N1190      O1201   1.262       .  A
N1190      O1202   1.262       .  A
C1192      C1193   1.397       .  A
C1192      N1197   1.428       .  S
C1193      C1194   1.404       .  A
C1193      H1198   1.080       .  S
C1194      C1195   1.415       .  A
C1195      C1196   1.397       .  A
C1195      N1199   1.428       .  S
C1196      H1200   1.080       .  S
N1197      O1207   1.262       .  A
N1197      O1208   1.262       .  A
N1199      O1205   1.262       .  A
N1199      O1206   1.262       .  A
C1209      C1210   1.400       .  A
C1209      C1214   1.401       .  A
C1209      H1219   1.078       .  S
C1210      C1215   1.478       .  S
C1210      C1211   1.408       .  A
C1211      C1212   1.398       .  A
C1211      N1216   1.428       .  S
C1212      C1213   1.407       .  A
C1212      H1217   1.078       .  S
C1213      C1214   1.415       .  A
C1214      N1218   1.427       .  S
C1215      C1220   1.409       .  A
C1215      C1224   1.401       .  A
N1216      O1231   1.262       .  A
N1216      O1232   1.262       .  A
N1218      O1229   1.262       .  A
N1218      O1230   1.262       .  A
C1220      C1221   1.394       .  A
C1220      N1225   1.429       .  S
C1221      C1222   1.404       .  A
C1221      H1226   1.079       .  S
C1222      C1223   1.416       .  A
C1223      C1224   1.404       .  A
C1223      N1227   1.428       .  S
C1224      H1228   1.078       .  S
N1225      O1235   1.262       .  A
N1225      O1236   1.262       .  A
N1227      O1233   1.262       .  A
N1227      O1234   1.262       .  A
C1237      C1238   1.398       .  A
C1237      C1242   1.397       .  A
C1237      H1247   1.080       .  S
C1238      C1243   1.479       .  S
C1238      C1239   1.413       .  A
C1239      C1240   1.400       .  A
C1239      N1244   1.428       .  S
C1240      C1241   1.403       .  A
C1240      H1245   1.079       .  S
C1241      C1242   1.416       .  A
C1242      N1246   1.428       .  S
C1243      C1248   1.412       .  A
C1243      C1252   1.399       .  A
N1244      O1259   1.262       .  A
N1244      O1260   1.262       .  A
N1246      O1257   1.262       .  A
N1246      O1258   1.262       .  A
C1248      C1249   1.397       .  A
C1248      N1253   1.428       .  S
C1249      C1250   1.402       .  A
C1249      H1254   1.079   1_554  S
C1250      C1251   1.417       .  A
C1251      C1252   1.398       .  A
C1251      N1255   1.428       .  S
C1252      H1256   1.079       .  S
N1253      O1263   1.262       .  A
N1253      O1264   1.262       .  A
N1255      O1261   1.262       .  A
N1255      O1262   1.261       .  A
C1265      C1266   1.398       .  A
C1265      C1270   1.396       .  A
C1265      H1275   1.079       .  S
C1266      C1271   1.475       .  S
C1266      C1267   1.410       .  A
C1267      C1268   1.399       .  A
C1267      N1272   1.428       .  S
C1268      C1269   1.405       .  A
C1268      H1273   1.079       .  S
C1269      C1270   1.414       .  A
C1270      N1274   1.427       .  S
C1271      C1276   1.409       .  A
C1271      C1280   1.400       .  A
N1272      O1287   1.262       .  A
N1272      O1288   1.262       .  A
N1274      O1285   1.262       .  A
N1274      O1286   1.262       .  A
C1276      C1277   1.393       .  A
C1276      N1281   1.429       .  S
C1277      C1278   1.405       .  A
C1277      H1282   1.079       .  S
C1278      C1279   1.418       .  A
C1279      C1280   1.404       .  A
C1279      N1283   1.427       .  S
C1280      H1284   1.080       .  S
N1281      O1291   1.262       .  A
N1281      O1292   1.262       .  A
N1283      O1289   1.262       .  A
N1283      O1290   1.261       .  A
C1293      C1294   1.402       .  A
C1293      C1298   1.400       .  A
C1293      H1303   1.078       .  S
C1294      C1299   1.478       .  S
C1294      C1295   1.412       .  A
C1295      C1296   1.394       .  A
C1295      N1300   1.429       .  S
C1296      C1297   1.402       .  A
C1296      H1301   1.079       .  S
C1297      C1298   1.411       .  A
C1298      N1302   1.427       .  S
C1299      C1304   1.411       .  A
C1299      C1308   1.400       .  A
N1300      O1315   1.262       .  A
N1300      O1316   1.262       .  A
N1302      O1313   1.262       .  A
N1302      O1314   1.262       .  A
C1304      C1305   1.395   1_565  A
C1304      N1309   1.428       .  S
C1305      C1306   1.402       .  A
C1305      H1310   1.080       .  S
C1306      C1307   1.417       .  A
C1307      C1308   1.396   1_545  A
C1307      N1311   1.428       .  S
C1308      H1312   1.080       .  S
N1309      O1319   1.262       .  A
N1309      O1320   1.261       .  A
N1311      O1317   1.262       .  A
N1311      O1318   1.262       .  A
C1321      C1322   1.399       .  A
C1321      C1326   1.403       .  A
C1321      H1331   1.080       .  S
C1322      C1327   1.479       .  S
C1322      C1323   1.408       .  A
C1323      C1324   1.400       .  A
C1323      N1328   1.428       .  S
C1324      C1325   1.405       .  A
C1324      H1329   1.079       .  S
C1325      C1326   1.418       .  A
C1326      N1330   1.428       .  S
C1327      C1332   1.406       .  A
C1327      C1336   1.401       .  A
N1328      O1343   1.262       .  A
N1328      O1344   1.262       .  A
N1330      O1341   1.262       .  A
N1330      O1342   1.262       .  A
C1332      C1333   1.397       .  A
C1332      N1337   1.427       .  S
C1333      C1334   1.407   1_556  A
C1333      H1338   1.080       .  S
C1334      C1335   1.417   1_554  A
C1335      C1336   1.404       .  A
C1335      N1339   1.428   1_556  S
C1336      H1340   1.080       .  S
N1337      O1347   1.262       .  A
N1337      O1348   1.262       .  A
N1339      O1345   1.262       .  A
N1339      O1346   1.262       .  A
C1349      C1350   1.399       .  A
C1349      C1354   1.398       .  A
C1349      H1359   1.080       .  S
C1350      C1355   1.476       .  S
C1350      C1351   1.408       .  A
C1351      C1352   1.398       .  A
C1351      N1356   1.428       .  S
C1352      C1353   1.405       .  A
C1352      H1357   1.079       .  S
C1353      C1354   1.416       .  A
C1354      N1358   1.428       .  S
C1355      C1360   1.408       .  A
C1355      C1364   1.399       .  A
N1356      O1371   1.262       .  A
N1356      O1372   1.262       .  A
N1358      O1369   1.262       .  A
N1358      O1370   1.262       .  A
C1360      C1361   1.395       .  A
C1360      N1365   1.428       .  S
C1361      C1362   1.405       .  A
C1361      H1366   1.079       .  S
C1362      C1363   1.419       .  A
C1363      C1364   1.403       .  A
C1363      N1367   1.428       .  S
C1364      H1368   1.080       .  S
N1365      O1375   1.262       .  A
N1365      O1376   1.262       .  A
N1367      O1373   1.262       .  A
N1367      O1374   1.262       .  A
C1377      C1378   1.400       .  A
C1377      C1382   1.403       .  A
C1377      H1387   1.079       .  S
C1378      C1383   1.477       .  S
C1378      C1379   1.407       .  A
C1379      C1380   1.395       .  A
C1379      N1384   1.427       .  S
C1380      C1381   1.404       .  A
C1380      H1385   1.079       .  S
C1381      C1382   1.419       .  A
C1382      N1386   1.429       .  S
C1383      C1388   1.407       .  A
C1383      C1392   1.399       .  A
N1384      O1399   1.262       .  A
N1384      O1400   1.261       .  A
N1386      O1397   1.262       .  A
N1386      O1398   1.262       .  A
C1388      C1389   1.398       .  A
C1388      N1393   1.428       .  S
C1389      C1390   1.406       .  A
C1389      H1394   1.079       .  S
C1390      C1391   1.419       .  A
C1391      C1392   1.404       .  A
C1391      N1395   1.428       .  S
C1392      H1396   1.080       .  S
N1393      O1403   1.262       .  A
N1393      O1404   1.261       .  A
N1395      O1401   1.262       .  A
N1395      O1402   1.262       .  A
C1405      C1406   1.405       .  A
C1405      C1410   1.405       .  A
C1405      H1415   1.079       .  S
C1406      C1411   1.484       .  S
C1406      C1407   1.408       .  A
C1407      C1408   1.397       .  A
C1407      N1412   1.428       .  S
C1408      C1409   1.407       .  A
C1408      H1413   1.079       .  S
C1409      C1410   1.416       .  A
C1410      N1414   1.428       .  S
C1411      C1416   1.411       .  A
C1411      C1420   1.400       .  A
N1412      O1427   1.262       .  A
N1412      O1428   1.261       .  A
N1414      O1425   1.262       .  A
N1414      O1426   1.262       .  A
C1416      C1417   1.402       .  A
C1416      N1421   1.428       .  S
C1417      C1418   1.406       .  A
C1417      H1422   1.079   1_556  S
C1418      C1419   1.417       .  A
C1419      C1420   1.399       .  A
C1419      N1423   1.429       .  S
C1420      H1424   1.080       .  S
N1421      O1431   1.262       .  A
N1421      O1432   1.261       .  A
N1423      O1429   1.262       .  A
N1423      O1430   1.262       .  A
C1433      C1434   1.401       .  A
C1433      C1438   1.403       .  A
C1433      H1443   1.078       .  S
C1434      C1439   1.483   1_655  S
C1434      C1435   1.414       .  A
C1435      C1436   1.393       .  A
C1435      N1440   1.430       .  S
C1436      C1437   1.403       .  A
C1436      H1441   1.079       .  S
C1437      C1438   1.417       .  A
C1438      N1442   1.427       .  S
C1439      C1444   1.413       .  A
C1439      C1448   1.400       .  A
N1440      O1455   1.262       .  A
N1440      O1456   1.261       .  A
N1442      O1453   1.262       .  A
N1442      O1454   1.262       .  A
C1444      C1445   1.399       .  A
C1444      N1449   1.429       .  S
C1445      C1446   1.405       .  A
C1445      H1450   1.079       .  S
C1446      C1447   1.414       .  A
C1447      C1448   1.394       .  A
C1447      N1451   1.428       .  S
C1448      H1452   1.077       .  S
N1449      O1459   1.262       .  A
N1449      O1460   1.262       .  A
N1451      O1457   1.262       .  A
N1451      O1458   1.262       .  A
C1461      C1462   1.401       .  A
C1461      C1466   1.401       .  A
C1461      H1471   1.078       .  S
C1462      C1467   1.488       .  S
C1462      C1463   1.414       .  A
C1463      C1464   1.399       .  A
C1463      N1468   1.429       .  S
C1464      C1465   1.403       .  A
C1464      H1469   1.079   1_556  S
C1465      C1466   1.418       .  A
C1466      N1470   1.428       .  S
C1467      C1472   1.413       .  A
C1467      C1476   1.402       .  A
N1468      O1483   1.262       .  A
N1468      O1484   1.262       .  A
N1470      O1481   1.262       .  A
N1470      O1482   1.262       .  A
C1472      C1473   1.396       .  A
C1472      N1477   1.429       .  S
C1473      C1474   1.404       .  A
C1473      H1478   1.081       .  S
C1474      C1475   1.416       .  A
C1475      C1476   1.403       .  A
C1475      N1479   1.427       .  S
C1476      H1480   1.079       .  S
N1477      O1487   1.262       .  A
N1477      O1488   1.262       .  A
N1479      O1485   1.262       .  A
N1479      O1486   1.262       .  A
C1489      C1490   1.403       .  A
C1489      C1494   1.401       .  A
C1489      H1499   1.080       .  S
C1490      C1495   1.481       .  S
C1490      C1491   1.410       .  A
C1491      C1492   1.400       .  A
C1491      N1496   1.428       .  S
C1492      C1493   1.405       .  A
C1492      H1497   1.080       .  S
C1493      C1494   1.413       .  A
C1494      N1498   1.428       .  S
C1495      C1500   1.409       .  A
C1495      C1504   1.403       .  A
N1496      O1511   1.262       .  A
N1496      O1512   1.261       .  A
N1498      O1509   1.262       .  A
N1498      O1510   1.262       .  A
C1500      C1501   1.400       .  A
C1500      N1505   1.428       .  S
C1501      C1502   1.405       .  A
C1501      H1506   1.082       .  S
C1502      C1503   1.412       .  A
C1503      C1504   1.399       .  A
C1503      N1507   1.429       .  S
C1504      H1508   1.082       .  S
N1505      O1515   1.262       .  A
N1505      O1516   1.261       .  A
N1507      O1513   1.262       .  A
N1507      O1514   1.262       .  A
C1517      C1518   1.400       .  A
C1517      C1522   1.402       .  A
C1517      H1527   1.080       .  S
C1518      C1523   1.474       .  S
C1518      C1519   1.407       .  A
C1519      C1520   1.396       .  A
C1519      N1524   1.428       .  S
C1520      C1521   1.405       .  A
C1520      H1525   1.080       .  S
C1521      C1522   1.416       .  A
C1522      N1526   1.428       .  S
C1523      C1528   1.407       .  A
C1523      C1532   1.398       .  A
N1524      O1539   1.262       .  A
N1524      O1540   1.262       .  A
N1526      O1537   1.262       .  A
N1526      O1538   1.262       .  A
C1528      C1529   1.395       .  A
C1528      N1533   1.428       .  S
C1529      C1530   1.404       .  A
C1529      H1534   1.081       .  S
C1530      C1531   1.418       .  A
C1531      C1532   1.400       .  A
C1531      N1535   1.428       .  S
C1532      H1536   1.082       .  S
N1533      O1543   1.262       .  A
N1533      O1544   1.262       .  A
N1535      O1541   1.262       .  A
N1535      O1542   1.262       .  A
C1545      C1546   1.402       .  A
C1545      C1550   1.402       .  A
C1545      H1555   1.079       .  S
C1546      C1551   1.485       .  S
C1546      C1547   1.411       .  A
C1547      C1548   1.400       .  A
C1547      N1552   1.429       .  S
C1548      C1549   1.408       .  A
C1548      H1553   1.079       .  S
C1549      C1550   1.414       .  A
C1550      N1554   1.427       .  S
C1551      C1556   1.411       .  A
C1551      C1560   1.402       .  A
N1552      O1567   1.262       .  A
N1552      O1568   1.262       .  A
N1554      O1565   1.262       .  A
N1554      O1566   1.262       .  A
C1556      C1557   1.395       .  A
C1556      N1561   1.429       .  S
C1557      C1558   1.404       .  A
C1557      H1562   1.079       .  S
C1558      C1559   1.417       .  A
C1559      C1560   1.405       .  A
C1559      N1563   1.428       .  S
C1560      H1564   1.078       .  S
N1561      O1571   1.262       .  A
N1561      O1572   1.262       .  A
N1563      O1569   1.262       .  A
N1563      O1570   1.262       .  A
C1573      C1574   1.402       .  A
C1573      C1578   1.404       .  A
C1573      H1583   1.081       .  S
C1574      C1579   1.489       .  S
C1574      C1575   1.412       .  A
C1575      C1576   1.402       .  A
C1575      N1580   1.428       .  S
C1576      C1577   1.405       .  A
C1576      H1581   1.080       .  S
C1577      C1578   1.417       .  A
C1578      N1582   1.429       .  S
C1579      C1584   1.412       .  A
C1579      C1588   1.410       .  A
N1580      O1595   1.262       .  A
N1580      O1596   1.262       .  A
N1582      O1593   1.262       .  A
N1582      O1594   1.262       .  A
C1584      C1585   1.398       .  A
C1584      N1589   1.427       .  S
C1585      C1586   1.399   1_556  A
C1585      H1590   1.084       .  S
C1586      C1587   1.407   1_554  A
C1587      C1588   1.406       .  A
C1587      N1591   1.430   1_556  S
C1588      H1592   1.085       .  S
N1589      O1599   1.262       .  A
N1589      O1600   1.261       .  A
N1591      O1597   1.262       .  A
N1591      O1598   1.262       .  A
C1601      C1602   1.400       .  A
C1601      C1606   1.396       .  A
C1601      H1611   1.081       .  S
C1602      C1607   1.476       .  S
C1602      C1603   1.408       .  A
C1603      C1604   1.400       .  A
C1603      N1608   1.427       .  S
C1604      C1605   1.406       .  A
C1604      H1609   1.080       .  S
C1605      C1606   1.416       .  A
C1606      N1610   1.429       .  S
C1607      C1612   1.408       .  A
C1607      C1616   1.402       .  A
N1608      O1623   1.262       .  A
N1608      O1624   1.262       .  A
N1610      O1621   1.262       .  A
N1610      O1622   1.262       .  A
C1612      C1613   1.399       .  A
C1612      N1617   1.427       .  S
C1613      C1614   1.405       .  A
C1613      H1618   1.080       .  S
C1614      C1615   1.413       .  A
C1615      C1616   1.398       .  A
C1615      N1619   1.429       .  S
C1616      H1620   1.081       .  S
N1617      O1627   1.262       .  A
N1617      O1628   1.261       .  A
N1619      O1625   1.262       .  A
N1619      O1626   1.262       .  A
C1629      C1630   1.403       .  A
C1629      C1634   1.393       .  A
C1629      H1639   1.080       .  S
C1630      C1635   1.483   1_655  S
C1630      C1631   1.411       .  A
C1631      C1632   1.402       .  A
C1631      N1636   1.427       .  S
C1632      C1633   1.406       .  A
C1632      H1637   1.078       .  S
C1633      C1634   1.414       .  A
C1634      N1638   1.430       .  S
C1635      C1640   1.411       .  A
C1635      C1644   1.404       .  A
N1636      O1651   1.262       .  A
N1636      O1652   1.262       .  A
N1638      O1649   1.262       .  A
N1638      O1650   1.262       .  A
C1640      C1641   1.401       .  A
C1640      N1645   1.428       .  S
C1641      C1642   1.406       .  A
C1641      H1646   1.079       .  S
C1642      C1643   1.413       .  A
C1643      C1644   1.396       .  A
C1643      N1647   1.429       .  S
C1644      H1648   1.081       .  S
N1645      O1655   1.262       .  A
N1645      O1656   1.262       .  A
N1647      O1653   1.262       .  A
N1647      O1654   1.261       .  A
