geometry optimzed in LAMMPS
_audit_creation_date              2020-11-30 
_audit_creation_method            'lammps2cif' 
_symmetry_space_group_name_H-M    'P1' 
_symmetry_Int_Tables_number       1 
_symmetry_cell_setting            triclinic 
loop_ 
_symmetry_equiv_pos_as_xyz 
  x,y,z 
_cell_length_a                    38.93057819 
_cell_length_b                    39.497256050866 
_cell_length_c                    38.03702149123892 
_cell_angle_alpha                 90.56915957168302 
_cell_angle_beta                  89.63426023600566 
_cell_angle_gamma                 121.2323003375406 
loop_ 
_atom_site_label 
_atom_site_type_symbol 
_atom_site_fract_x 
_atom_site_fract_y 
_atom_site_fract_z 
_atom_site_charge 
C1          C  0.50958958  0.34723525  0.27889422     0.87500
C2          C  0.51933152  0.31448016  0.27492172    -0.52800
C3          C  0.54267945  0.31843139  0.24647004     0.10400
C4          C  0.55254029  0.35412986  0.22341168     0.21300
C5          C  0.55013800  0.38618200  0.27738253    -0.53500
C6          C  0.57372378  0.38946729  0.24933894     0.10500
C7          C  0.48884969  0.34574684  0.24453990    -0.53000
C8          C  0.51097888  0.34919964  0.21514327     0.11100
H9          H  0.51107323  0.29179788  0.29466495     0.15600
H10         H  0.57109419  0.35672158  0.20021830     0.01300
H11         H  0.56059189  0.40782834  0.29865493     0.15900
H12         H  0.45903057  0.34159673  0.24346460     0.15700
C13         C  0.32157489  0.53054314  0.21860101     0.87500
C14         C  0.28986098  0.54278491  0.21956623    -0.52800
C15         C  0.29400122  0.56697964  0.24723862     0.10400
C16         C  0.32868452  0.57537081  0.27204237     0.21300
C17         C  0.36232056  0.56985429  0.22064160    -0.53500
C18         C  0.36586364  0.59393120  0.24815519     0.10500
C19         C  0.31755822  0.51082952  0.25435767    -0.53000
C20         C  0.32153882  0.53469463  0.28248913     0.11100
H21         H  0.26845834  0.53573315  0.19847913     0.15600
H22         H  0.33122638  0.59385819  0.29514800     0.01300
H23         H  0.38537765  0.57867654  0.20061919     0.15900
H24         H  0.31367604  0.48171058  0.25699626     0.15700
C25         C  0.80990107  0.51228227  0.29185559     0.87500
C26         C  0.76762711  0.50578175  0.28836886    -0.52800
C27         C  0.74755150  0.48550618  0.25863452     0.10400
C28         C  0.77289995  0.47548669  0.23439437     0.21300
C29         C  0.80394707  0.47073754  0.28766362    -0.53500
C30         C  0.78377348  0.45082266  0.25790509     0.10500
C31         C  0.83191545  0.53438111  0.25845126    -0.53000
C32         C  0.81279348  0.51510157  0.22818795     0.11100
H33         H  0.75382736  0.51391024  0.30906405     0.15600
H34         H  0.75717298  0.46026467  0.20985348     0.01300
H35         H  0.81209172  0.45728805  0.30817546     0.15900
H36         H  0.86026133  0.56249761  0.25865312     0.15700
C37         C  0.66635633  0.21666090  0.28624365     0.87500
C38         C  0.70057264  0.26042994  0.28573699    -0.52800
C39         C  0.70309354  0.27959517  0.25509028     0.10400
C40         C  0.67133879  0.25260480  0.22772118     0.21300
C41         C  0.62850230  0.21736997  0.27706493    -0.53500
C42         C  0.63143643  0.23782577  0.24739052     0.10500
C43         C  0.67368240  0.19763186  0.25430370    -0.53000
C44         C  0.67622716  0.21608430  0.22335240     0.11100
H45         H  0.71876050  0.27551404  0.30869165     0.15600
H46         H  0.67323146  0.26788891  0.20293087     0.01300
H47         H  0.60335328  0.20712845  0.29515591     0.15900
H48         H  0.67606838  0.17148748  0.25594641     0.15700
C49         C  0.19510650  0.70173712  0.22046977     0.87500
C50         C  0.23764161  0.73838066  0.22353421    -0.52800
C51         C  0.25974673  0.73678326  0.25047784     0.10400
C52         C  0.23636809  0.69951071  0.27294456     0.21300
C53         C  0.20132317  0.66614141  0.21939649    -0.53500
C54         C  0.22342544  0.66524306  0.24671323     0.10500
C55         C  0.17559609  0.69901800  0.25659539    -0.53000
C56         C  0.19755801  0.69778358  0.28414640     0.11100
H57         H  0.25027518  0.76181607  0.20413322     0.15600
H58         H  0.25359782  0.69850248  0.29561642     0.01300
H59         H  0.19133555  0.64514166  0.19764587     0.15900
H60         H  0.14697314  0.69718973  0.25988580     0.15700
C61         C  0.49727290  0.83017000  0.22460668     0.87500
C62         C  0.48827782  0.78749397  0.22482501    -0.52800
C63         C  0.46262979  0.76448697  0.25079425     0.10400
C64         C  0.44943140  0.78713117  0.27513405     0.21300
C65         C  0.45606821  0.82660371  0.22445761    -0.53500
C66         C  0.43069339  0.80356843  0.25032876     0.10500
C67         C  0.51418444  0.84658530  0.26145999    -0.53000
C68         C  0.48866507  0.82384955  0.28808792     0.11100
H69         H  0.49994308  0.77617163  0.20492828     0.15600
H70         H  0.42877401  0.76871577  0.29647010     0.01300
H71         H  0.44736554  0.84035294  0.20463056     0.15900
H72         H  0.54241276  0.87410491  0.26584651     0.15700
C73         C  0.66081196  0.49022295  0.72473010     0.87500
C74         C  0.69664971  0.48425933  0.72218643    -0.52800
C75         C  0.70333147  0.46922275  0.75185861     0.10400
C76         C  0.67379337  0.46282953  0.78186337     0.21300
C77         C  0.62551363  0.44982026  0.73588581    -0.53500
C78         C  0.63228558  0.43462898  0.76529804     0.10500
C79         C  0.66946316  0.51725443  0.75661018    -0.53000
C80         C  0.67613189  0.50311633  0.78690111     0.11100
H81         H  0.71368561  0.48940070  0.69807580     0.15600
H82         H  0.67900588  0.45070667  0.80593923     0.01300
H83         H  0.59936608  0.43265198  0.71923176     0.15900
H84         H  0.66943497  0.54470155  0.75549029     0.15700
C85         C  0.51924045  0.20593589  0.71967071     0.87500
C86         C  0.52974122  0.24885439  0.72607875    -0.52800
C87         C  0.55154312  0.26581092  0.75598300     0.10400
C88         C  0.56049994  0.23819542  0.77668566     0.21300
C89         C  0.55931477  0.20745435  0.72092308    -0.53500
C90         C  0.58219794  0.22615232  0.74982257     0.10500
C91         C  0.49725332  0.18381423  0.75302553    -0.53000
C92         C  0.51854238  0.20091662  0.78313970     0.11100
H93         H  0.52221671  0.26485050  0.70767925     0.15600
H94         H  0.57827168  0.25191611  0.80081811     0.01300
H95         H  0.57008509  0.19770405  0.69896153     0.15900
H96         H  0.46722740  0.15771259  0.75297917     0.15700
C97         C  0.20526349  0.53693527  0.78850023     0.87500
C98         C  0.24824709  0.54472416  0.78709502    -0.52800
C99         C  0.27152497  0.57003579  0.76107829     0.10400
C100        C  0.24902069  0.58418245  0.73815080     0.21300
C101        C  0.21055073  0.57827858  0.79054129    -0.53500
C102        C  0.23372252  0.60305436  0.76442557     0.10500
C103        C  0.18802601  0.52129761  0.75152335    -0.53000
C104        C  0.21115070  0.54641081  0.72502741     0.11100
H105        H  0.25979503  0.53296721  0.80631742     0.15600
H106        H  0.26778609  0.60466343  0.71691728     0.01300
H107        H  0.19832736  0.58762650  0.81168364     0.15900
H108        H  0.15973802  0.49387774  0.74701944     0.15700
C109        C  0.51015413  0.70808433  0.78504178     0.87500
C110        C  0.49993675  0.74049420  0.78010973    -0.52800
C111        C  0.47576325  0.73430018  0.75191342     0.10400
C112        C  0.46526684  0.69690756  0.73049873     0.21300
C113        C  0.46938498  0.66896654  0.78555956    -0.53500
C114        C  0.44506264  0.66334659  0.75759705     0.10500
C115        C  0.52955016  0.70698227  0.75017271    -0.53000
C116        C  0.50611675  0.70106486  0.72131461     0.11100
H117        H  0.50823780  0.76424115  0.79906325     0.15600
H118        H  0.44632047  0.69309693  0.70753190     0.01300
H119        H  0.45993793  0.64871642  0.80753475     0.15900
H120        H  0.55919552  0.71075866  0.74841536     0.15700
C121        C  0.82129148  0.35796657  0.71363502     0.87500
C122        C  0.77808610  0.32229129  0.71329784    -0.52800
C123        C  0.75619459  0.31906094  0.74282765     0.10400
C124        C  0.78031789  0.35204696  0.77022677     0.21300
C125        C  0.81666661  0.39368850  0.72075225    -0.53500
C126        C  0.79411338  0.39030449  0.74953783     0.10500
C127        C  0.83991948  0.35338573  0.74711991    -0.53000
C128        C  0.81885060  0.35059137  0.77703359     0.11100
H129        H  0.76571693  0.30227392  0.69092324     0.15600
H130        H  0.76287883  0.34998002  0.79408850     0.01300
H131        H  0.82633788  0.41768500  0.70213370     0.15900
H132        H  0.86748958  0.35278667  0.74723419     0.15700
In133      In  0.67217497  0.14924627  0.43785066     1.36900
C134        C  0.63772303  0.07132047  0.42955069     0.78600
O135        O  0.63273929  0.12873408  0.48575488    -0.59900
O136        O  0.63049016  0.17067832  0.45296811    -0.50800
C137        C  0.74059650  0.19887521  0.47105034     0.71200
O138        O  0.73446517  0.16692988  0.45740969    -0.45700
C139        C  0.68395765  0.17688755  0.37254893     0.75900
O140        O  0.66444715  0.09031592  0.45245331    -0.57500
O141        O  0.65417914  0.17017344  0.39118434    -0.47600
O142        O  0.63073820  0.09241879  0.40983413    -0.53900
C143        C  0.61741509  0.14946121  0.48007380     0.86100
O144        O  0.71232469  0.20517852  0.46693697    -0.55800
O145        O  0.70822021  0.16947135  0.38735447    -0.59100
In146      In  0.87833176  0.35016590  0.55697851     1.36900
C147        C  0.95618326  0.37457571  0.55618218     0.78600
O148        O  0.88851940  0.38262271  0.50580234    -0.59900
O149        O  0.87125392  0.40261821  0.55069876    -0.50800
C150        C  0.81522812  0.28911346  0.52606974     0.71200
O151        O  0.84822241  0.29038695  0.52894600    -0.45700
C152        C  0.85928272  0.33994266  0.62539345     0.75900
O153        O  0.93062228  0.34224847  0.54184861    -0.57500
O154        O  0.86541292  0.36952679  0.60801579    -0.47600
O155        O  0.94146172  0.39281012  0.57097960    -0.53900
C156        C  0.88019673  0.40716543  0.51848044     0.86100
O157        O  0.81467036  0.31789179  0.53985727    -0.55800
O158        O  0.86332417  0.31494287  0.60783255    -0.59100
In159      In  0.86801964  0.55118091  0.45463724     1.36900
C160        C  0.94612610  0.60575701  0.45371955     0.78600
O161        O  0.87340624  0.52564917  0.50534315    -0.59900
O162        O  0.87129771  0.49591403  0.45789368    -0.50800
C163        C  0.81665003  0.56666627  0.48709114     0.71200
O164        O  0.84414794  0.59157508  0.46730303    -0.45700
C165        C  0.83379506  0.52853546  0.39127615     0.75900
O166        O  0.92113968  0.61118778  0.47015249    -0.57500
O167        O  0.82160038  0.50668399  0.41785405    -0.47600
O168        O  0.93084861  0.57329726  0.43728544    -0.53900
C169        C  0.87350645  0.49679912  0.49100087     0.86100
O170        O  0.81605426  0.53465932  0.49025974    -0.55800
O171        O  0.86365425  0.56270027  0.39683843    -0.59100
In172      In  0.66003767  0.54462773  0.56770101     1.36900
C173        C  0.62953695  0.59102752  0.57378474     0.78600
O174        O  0.63077444  0.52485231  0.51477077    -0.59900
O175        O  0.60908202  0.48297328  0.55617789    -0.50800
C176        C  0.72456133  0.54752335  0.54073521     0.71200
O177        O  0.72031495  0.57721766  0.53952025    -0.45700
C178        C  0.67278910  0.53891821  0.63500824     0.75900
O179        O  0.66118499  0.60175351  0.55606403    -0.57500
O180        O  0.64353276  0.51177203  0.61796815    -0.47600
O181        O  0.61503053  0.55794861  0.58835740    -0.53900
C182        C  0.60633495  0.48985734  0.52431457     0.86100
O183        O  0.69667033  0.51779577  0.55610845    -0.55800
O184        O  0.69599127  0.56947363  0.61746289    -0.59100
In185      In  0.47353010  0.15707299  0.55625779     1.36900
C186        C  0.41852855  0.07958377  0.55464159     0.78600
O187        O  0.52325975  0.18898464  0.51651836    -0.59900
O188        O  0.51817164  0.13911339  0.54171619    -0.50800
C189        C  0.44430858  0.19842266  0.52869052     0.71200
O190        O  0.44546737  0.19432279  0.56142413    -0.45700
C191        C  0.49989934  0.18836241  0.61991103     0.75900
O192        O  0.41570167  0.10401648  0.53575595    -0.57500
O193        O  0.52125919  0.20097297  0.59263365    -0.47600
O194        O  0.44871709  0.09496231  0.57450162    -0.53900
C195        C  0.53660140  0.16620940  0.51953401     0.86100
O196        O  0.45571268  0.17935955  0.51019834    -0.55800
O197        O  0.46448808  0.16009392  0.61472894    -0.59100
In198      In  0.46105369  0.34201237  0.44292326     1.36900
C199        C  0.40696852  0.36433965  0.44117135     0.78600
O200        O  0.48870888  0.36231914  0.49672840    -0.59900
O201        O  0.51972243  0.39875722  0.45338520    -0.50800
C202        C  0.44164343  0.27052310  0.46548631     0.71200
O203        O  0.43818323  0.29492998  0.48444785    -0.45700
C204        C  0.48830637  0.34361238  0.37859016     0.75900
O205        O  0.39704731  0.32925835  0.44804004    -0.57500
O206        O  0.50916070  0.35028149  0.40592847    -0.47600
O207        O  0.44371800  0.38692197  0.43472569    -0.53900
C208        C  0.51867760  0.39399062  0.48612377     0.86100
O209        O  0.45204054  0.28140517  0.43428365    -0.55800
O210        O  0.45270335  0.33538733  0.38397953    -0.59100
In211      In  0.53399906  0.88379297  0.44775897     1.36900
C212        C  0.58803956  0.96098789  0.44928594     0.78600
O213        O  0.56386879  0.88459161  0.39648698    -0.59900
O214        O  0.50056761  0.85953941  0.39739614    -0.50800
C215        C  0.53571762  0.82189856  0.47208907     0.71200
O216        O  0.56400833  0.85699402  0.47816104    -0.45700
C217        C  0.47662645  0.88156278  0.48837494     0.75900
O218        O  0.59322200  0.93637205  0.46576383    -0.57500
O219        O  0.47639479  0.88393435  0.45533432    -0.47600
O220        O  0.55545646  0.94600021  0.43258632    -0.53900
C221        C  0.53137975  0.86799948  0.37942022     0.86100
O222        O  0.50822585  0.81899437  0.45268974    -0.55800
O223        O  0.50598054  0.88037520  0.50042524    -0.59100
In224      In  0.13784487  0.68572060  0.44398361     1.36900
C225        C  0.19685766  0.75146387  0.47341939     0.78600
O226        O  0.13147714  0.65919045  0.49721154    -0.59900
O227        O  0.14888758  0.63628386  0.45442640    -0.50800
C228        C  0.05866076  0.64854629  0.44048768     0.71200
O229        O  0.07885600  0.68267814  0.45437383    -0.45700
C230        C  0.15422001  0.69816213  0.37557722     0.75900
O231        O  0.16064070  0.74246839  0.47600161    -0.57500
O232        O  0.16281432  0.67705962  0.39391245    -0.47600
O233        O  0.20230953  0.72833223  0.45449296    -0.53900
C234        C  0.14080499  0.63462450  0.48680565     0.86100
O235        O  0.07904995  0.63464627  0.42851976    -0.55800
O236        O  0.13798003  0.71392073  0.39249579    -0.59100
In237      In  0.33407606  0.88996094  0.56641889     1.36900
C238        C  0.26497594  0.83801832  0.53489816     0.78600
O239        O  0.36559690  0.90102564  0.51429832    -0.59900
O240        O  0.38352891  0.87770359  0.55557153    -0.50800
C241        C  0.37161848  0.96850422  0.57056807     0.71200
O242        O  0.34049359  0.94876592  0.55190772    -0.45700
C243        C  0.32433858  0.86830659  0.63391610     0.75900
O244        O  0.27034285  0.86977619  0.54833004    -0.57500
O245        O  0.34045115  0.85714005  0.61143383    -0.47600
O246        O  0.29379435  0.83262535  0.53920592    -0.53900
C247        C  0.38843761  0.88915256  0.52406599     0.86100
O248        O  0.38223365  0.94805253  0.58712382    -0.55800
O249        O  0.31098102  0.88872326  0.62148679    -0.59100
In250      In  0.33144661  0.47609393  0.43757382     1.36900
C251        C  0.26702955  0.46413116  0.47315985     0.78600
O252        O  0.36165955  0.49630303  0.49006595    -0.59900
O253        O  0.38486548  0.53677773  0.44747697    -0.50800
C254        C  0.36727306  0.43452707  0.43166229     0.71200
O255        O  0.33330763  0.42014055  0.44636164    -0.45700
C256        C  0.31571457  0.48480223  0.37101831     0.75900
O257        O  0.27095257  0.43565060  0.46332325    -0.57500
O258        O  0.33690107  0.51358271  0.39138420    -0.47600
O259        O  0.29485791  0.49771904  0.46337202    -0.53900
C260        C  0.38771819  0.53037085  0.47951193     0.86100
O261        O  0.38137218  0.46871473  0.41947971    -0.55800
O262        O  0.30124177  0.45131377  0.38504025    -0.59100
In263      In  0.53461354  0.68160832  0.55600829     1.36900
C264        C  0.55052311  0.74988855  0.52748697     0.78600
O265        O  0.51330404  0.65289815  0.50291036    -0.59900
O266        O  0.47678658  0.62377810  0.54728502    -0.50800
C267        C  0.58860929  0.65913181  0.55761726     0.71200
O268        O  0.59414391  0.68833254  0.53987476    -0.45700
C269        C  0.51067419  0.68657578  0.62097534     0.75900
O270        O  0.57578548  0.74750513  0.54621644    -0.57500
O271        O  0.48704867  0.67211483  0.59528379    -0.47600
O272        O  0.51746665  0.71786124  0.52417048    -0.53900
C273        C  0.48118880  0.62380294  0.51440006     0.86100
O274        O  0.55624024  0.64244221  0.57478938    -0.55800
O275        O  0.54700138  0.69966252  0.61339603    -0.59100
In276      In  0.14712090  0.49538273  0.56587214     1.36900
C277        C  0.06818418  0.44887118  0.56909738     0.78600
O278        O  0.14804766  0.46939291  0.61804392    -0.59900
O279        O  0.17661957  0.53189775  0.61439753    -0.50800
C280        C  0.20475047  0.48963702  0.53409545     0.71200
O281        O  0.16900158  0.46055211  0.53538645    -0.45700
C282        C  0.14589179  0.54754228  0.52329167     0.75900
O283        O  0.08960110  0.43649150  0.55578501    -0.57500
O284        O  0.15131479  0.55337909  0.55603129    -0.47600
O285        O  0.08728756  0.48372750  0.58091875    -0.53900
C286        C  0.16690758  0.50240690  0.63369118     0.86100
O287        O  0.21087921  0.52008430  0.55058949    -0.55800
O288        O  0.14145010  0.51529038  0.51243832    -0.59100
C289        C  0.35098634  0.83961328  0.78466598     0.87500
C290        C  0.31578501  0.79682815  0.78900698    -0.52800
C291        C  0.31125976  0.77235467  0.76154334     0.10400
C292        C  0.34226843  0.79320789  0.73214074     0.21300
C293        C  0.38761061  0.83530098  0.77797079    -0.53500
C294        C  0.38282925  0.81026790  0.75093996     0.10500
C295        C  0.34343908  0.85349601  0.74940772    -0.53000
C296        C  0.33908921  0.82898232  0.72170181     0.11100
H297        H  0.29753833  0.78641728  0.81265862     0.15600
H298        H  0.33882083  0.77385073  0.70943214     0.01300
H299        H  0.41329905  0.84773005  0.79552830     0.15900
H300        H  0.34317666  0.88066919  0.74660273     0.15700
In301      In  0.67703666  0.15567804  0.06523429     1.36900
C302        C  0.74694200  0.20020975  0.03225053     0.78600
O303        O  0.64842899  0.17870930  0.02885146    -0.59900
O304        O  0.61093262  0.12378794  0.05394454    -0.50800
C305        C  0.65768165  0.07999428  0.06632783     0.71200
O306        O  0.67971742  0.10371408  0.04282341    -0.45700
C307        C  0.68026665  0.19327468  0.12502713     0.75900
O308        O  0.74484078  0.19467369  0.06502079    -0.57500
O309        O  0.66944771  0.20000144  0.09617986    -0.47600
O310        O  0.71377692  0.18109472  0.01645684    -0.53900
C311        C  0.61334729  0.14965441  0.03337514     0.86100
O312        O  0.64831801  0.09574136  0.09055625    -0.55800
O313        O  0.69108237  0.16816646  0.12331617    -0.59100
In314      In  0.86627173  0.34769706  0.93925157     1.36900
C315        C  0.81612588  0.27488874  0.96434345     0.78600
O316        O  0.84181006  0.36385100  0.98567956    -0.59900
O317        O  0.88247781  0.41030980  0.95217920    -0.50800
C318        C  0.94410633  0.36926764  0.93581841     0.71200
O319        O  0.92786165  0.37229768  0.96337645    -0.45700
C320        C  0.83869605  0.35332711  0.87669731     0.75900
O321        O  0.84894789  0.29873757  0.97904839    -0.57500
O322        O  0.83336981  0.36756233  0.90457988    -0.47600
O323        O  0.81070181  0.28697083  0.93573014    -0.53900
C324        C  0.86072216  0.40038854  0.97939599     0.86100
O325        O  0.92024788  0.35340999  0.91050384    -0.55800
O326        O  0.85830956  0.33627846  0.88071913    -0.59100
In327      In  0.86498255  0.54375215  0.06446501     1.36900
C328        C  0.94369232  0.59142720  0.07475365     0.78600
O329        O  0.85536088  0.55796483  0.12028549    -0.59900
O330        O  0.83394831  0.49811287  0.10555385    -0.50800
C331        C  0.80817486  0.55560270  0.03874857     0.71200
O332        O  0.84466109  0.58305069  0.03920266    -0.45700
C333        C  0.86853495  0.49389473  0.01864410     0.75900
O334        O  0.92395033  0.60201915  0.05642005    -0.57500
O335        O  0.85591518  0.48458133  0.04964198    -0.47600
O336        O  0.92288194  0.55813846  0.08890993    -0.53900
C337        C  0.83751676  0.52200272  0.12944988     0.86100
O338        O  0.80152078  0.52359894  0.05159463    -0.55800
O339        O  0.87877025  0.52873200  0.01057400    -0.59100
In340      In  0.67442421  0.55903479  0.94643675     1.36900
C341        C  0.74178056  0.57797351  0.98142721     0.78600
O342        O  0.63241972  0.54151756  0.99275749    -0.59900
O343        O  0.62157101  0.49787964  0.95422607    -0.50800
C344        C  0.64947379  0.60950516  0.93540881     0.71200
O345        O  0.67621661  0.61657475  0.95786218    -0.45700
C346        C  0.68197871  0.52869735  0.88579789     0.75900
O347        O  0.74237340  0.59725433  0.95492487    -0.57500
O348        O  0.67317826  0.51037332  0.91446294    -0.47600
O349        O  0.70715989  0.55109263  0.99039042    -0.53900
C350        C  0.61100200  0.50597003  0.98293910     0.86100
O351        O  0.63734760  0.57808697  0.91799162    -0.55800
O352        O  0.68887813  0.56360986  0.88820720    -0.59100
In353      In  0.47822643  0.15877999  0.94601984     1.36900
C354        C  0.43273241  0.08081167  0.93555121     0.78600
O355        O  0.46793749  0.15781447  0.88773552    -0.59900
O356        O  0.51827380  0.20866994  0.91014619    -0.50800
C357        C  0.45276345  0.19667955  0.98737448     0.71200
O358        O  0.47104178  0.18048384  0.99845411    -0.45700
C359        C  0.54369128  0.16728664  0.97638743     0.75900
O360        O  0.41876913  0.09984395  0.95064281    -0.57500
O361        O  0.54531371  0.19048738  0.95309274    -0.47600
O362        O  0.46856628  0.10173658  0.92545966    -0.53900
C363        C  0.49930415  0.19104963  0.88266919     0.86100
O364        O  0.44431918  0.19104597  0.95506271    -0.55800
O365        O  0.50867064  0.13990493  0.98418414    -0.59100
In366      In  0.46414731  0.35028459  0.05271028     1.36900
C367        C  0.43934092  0.28061051  0.02033890     0.78600
O368        O  0.50857513  0.37090737  0.00849936    -0.59900
O369        O  0.51006905  0.41441696  0.04268227    -0.50800
C370        C  0.40931622  0.37161540  0.06033215     0.71200
O371        O  0.42638837  0.37390118  0.03148352    -0.45700
C372        C  0.49648735  0.35253326  0.11508635     0.75900
O373        O  0.42807346  0.30374239  0.01079160    -0.57500
O374        O  0.51728779  0.36971939  0.08828802    -0.47600
O375        O  0.46002659  0.29145140  0.04797978    -0.53900
C376        C  0.52461125  0.40707448  0.01601596     0.86100
O377        O  0.41802487  0.35584190  0.08448481    -0.55800
O378        O  0.45897320  0.33339285  0.10988811    -0.59100
In379      In  0.13484592  0.68837510  0.05875412     1.36900
C380        C  0.05637048  0.66308543  0.06074420     0.78600
O381        O  0.12533917  0.64712693  0.01272570    -0.59900
O382        O  0.14427363  0.63711349  0.06155333    -0.50800
C383        C  0.18197444  0.75456286  0.02240075     0.71200
O384        O  0.16274223  0.75422356  0.04937710    -0.45700
C385        C  0.17001056  0.70309342  0.12202982     0.75900
O386        O  0.08155744  0.69502365  0.04607501    -0.57500
O387        O  0.18745710  0.70488644  0.09354872    -0.47600
O388        O  0.07151114  0.64502578  0.07461233    -0.53900
C389        C  0.13500845  0.62625046  0.03008484     0.86100
O390        O  0.17580448  0.72104261  0.01349286    -0.55800
O391        O  0.13463397  0.69583752  0.11845498    -0.59100
In392      In  0.33590070  0.89224006  0.93990350     1.36900
C393        C  0.35896960  0.96880657  0.94124791     0.78600
O394        O  0.36196485  0.89762930  0.99402550    -0.59900
O395        O  0.39099991  0.88874083  0.95077699    -0.50800
C396        C  0.27003098  0.82780708  0.96425594     0.71200
O397        O  0.27549884  0.86209506  0.96802342    -0.45700
C398        C  0.33095689  0.87767798  0.87079373     0.75900
O399        O  0.32429579  0.94232683  0.95113055    -0.57500
O400        O  0.35753173  0.87865238  0.89027835    -0.47600
O401        O  0.38059788  0.95575922  0.93051064    -0.53900
C402        C  0.39043917  0.89360157  0.98354453     0.86100
O403        O  0.29736547  0.82670626  0.94738120    -0.55800
O404        O  0.30653067  0.88446448  0.88660119    -0.59100
In405      In  0.53553670  0.89160453  0.06360511     1.36900
C406        C  0.58538838  0.96851858  0.07685652     0.78600
O407        O  0.51776860  0.90370867  0.01091262    -0.59900
O408        O  0.47659293  0.88791338  0.05309276    -0.50800
C409        C  0.54276668  0.83455068  0.03231267     0.71200
O410        O  0.57306810  0.86898336  0.03678115    -0.45700
C411        C  0.51757236  0.85971414  0.12719658     0.75900
O412        O  0.59480184  0.94963877  0.05573396    -0.57500
O413        O  0.49192850  0.85629112  0.10517745    -0.47600
O414        O  0.55162674  0.94788211  0.09131254    -0.53900
C415        C  0.48374787  0.89657313  0.02100535     0.86100
O416        O  0.51037359  0.83026215  0.04358833    -0.55800
O417        O  0.55368325  0.88054028  0.11726245    -0.59100
In418      In  0.55384106  0.69924027  0.94761570     1.36900
C419        C  0.60920978  0.67868715  0.95007482     0.78600
O420        O  0.51988357  0.65716949  0.99246120    -0.59900
O421        O  0.49693297  0.64004722  0.94094491    -0.50800
C422        C  0.56821880  0.76569648  0.98069957     0.71200
O423        O  0.59364066  0.76530834  0.96014579    -0.45700
C424        C  0.53354749  0.71177524  0.88421387     0.75900
O425        O  0.60603060  0.69925158  0.97399113    -0.57500
O426        O  0.51269010  0.70553855  0.91149588    -0.47600
O427        O  0.58629179  0.67143989  0.92423514    -0.53900
C428        C  0.49268030  0.63126401  0.97298966     0.86100
O429        O  0.53686883  0.73230752  0.98483538    -0.55800
O430        O  0.56644660  0.71346434  0.88922804    -0.59100
In431      In  0.34382908  0.48975347  0.05607336     1.36900
C432        C  0.35815083  0.43094461  0.04698674     0.78600
O433        O  0.38517294  0.52773116  0.01271311    -0.59900
O434        O  0.40875720  0.53838404  0.06426610    -0.50800
C435        C  0.28121373  0.48495944  0.02262584     0.71200
O436        O  0.27806575  0.45501224  0.03758659    -0.45700
C437        C  0.32988464  0.50955189  0.11992630     0.75900
O438        O  0.34437708  0.44225886  0.02293825    -0.57500
O439        O  0.34493719  0.53292780  0.09454266    -0.47600
O440        O  0.36193802  0.44776287  0.07627792    -0.53900
C441        C  0.41474324  0.54863058  0.03248951     0.86100
O442        O  0.31554801  0.51549217  0.02440924    -0.55800
O443        O  0.32112264  0.47456049  0.11314065    -0.59100
In444      In  0.13452854  0.48336469  0.94678098     1.36900
C445        C  0.05685622  0.42910765  0.95480742     0.78600
O446        O  0.13943425  0.52585968  0.98889634    -0.59900
O447        O  0.12113571  0.53211674  0.93826233    -0.50800
C448        C  0.18295298  0.46397686  0.97929326     0.71200
O449        O  0.15256288  0.43862921  0.96223452    -0.45700
C450        C  0.17242948  0.50811786  0.88514974     0.75900
O451        O  0.07936125  0.44909099  0.97995996    -0.57500
O452        O  0.18550269  0.52663416  0.91369981    -0.47600
O453        O  0.07459271  0.43486550  0.92558825    -0.53900
C454        C  0.12911736  0.54477978  0.96950427     0.86100
O455        O  0.18716003  0.49773094  0.98026952    -0.55800
O456        O  0.13937884  0.47571538  0.88761020    -0.59100
C457        C  0.21222996  0.45598576  0.99630730    -0.15500
C458        C  0.24851936  0.48685873  0.00522780    -0.30600
H459        H  0.20473930  0.42575811  0.00059147     0.13600
H460        H  0.25558748  0.51657859  0.99887791     0.14100
C461        C  0.45260816  0.58335689  0.01990802    -0.15500
C462        C  0.45778964  0.59406123  0.98593852    -0.30600
H463        H  0.47557419  0.60152678  0.03910981     0.13600
H464        H  0.43477884  0.57559035  0.96687121     0.14100
C465        C  0.54292374  0.80060162  0.01575193    -0.15500
C466        C  0.57370809  0.80211778  0.99800630    -0.30600
H467        H  0.51468586  0.77246010  0.01736692     0.13600
H468        H  0.60191342  0.83000968  0.99503382     0.14100
C469        C  0.42018272  0.89415602  0.00799049    -0.15500
C470        C  0.45462539  0.89744275  0.99673079    -0.30600
H471        H  0.41371984  0.89223497  0.03599786     0.13600
H472        H  0.46170865  0.90073883  0.96881277     0.14100
C473        C  0.12678098  0.57907420  0.98227250    -0.15500
C474        C  0.13594235  0.59185787  0.01572527    -0.30600
H475        H  0.11782879  0.59408562  0.96402826     0.13600
H476        H  0.14491016  0.57659477  0.03366168     0.14100
C477        C  0.21083562  0.79143937  0.00378845    -0.15500
C478        C  0.23563765  0.79138334  0.97900728    -0.30600
H479        H  0.21411459  0.81920224  0.01257947     0.13600
H480        H  0.23300158  0.76355291  0.97137826     0.14100
C481        C  0.38416302  0.38907047  0.06658508    -0.15500
C482        C  0.37194949  0.40291456  0.04037068    -0.30600
H483        H  0.37909038  0.39424200  0.09372386     0.13600
H484        H  0.37600286  0.39686280  0.01320813     0.14100
C485        C  0.41104723  0.03754407  0.93049626    -0.15500
C486        C  0.37417767  0.01180727  0.94299816    -0.30600
H487        H  0.42800469  0.02620898  0.91741084     0.13600
H488        H  0.35647236  0.02226444  0.95606749     0.14100
C489        C  0.44559963  0.22256538  0.01062057    -0.15500
C490        C  0.43235569  0.24588348  0.99922095    -0.30600
H491        H  0.45687206  0.22637766  0.03736012     0.13600
H492        H  0.42115606  0.24263782  0.97251634     0.14100
C493        C  0.63171188  0.63418469  0.93006623    -0.15500
C494        C  0.63545680  0.66201965  0.95301764    -0.30600
H495        H  0.61116510  0.62601488  0.90801819     0.13600
H496        H  0.65457317  0.66934955  0.97599599     0.14100
C497        C  0.55774714  0.43773204  0.99499294    -0.15500
C498        C  0.57686214  0.47622675  0.00381398    -0.30600
H499        H  0.56709260  0.42814817  0.97189465     0.13600
H500        H  0.56817504  0.48590632  0.02726098     0.14100
C501        C  0.98773740  0.61398075  0.07855786    -0.15500
C502        C  0.01257314  0.64709883  0.06069954    -0.30600
H503        H  0.00035097  0.60056981  0.09477374     0.13600
H504        H  0.00060229  0.66099507  0.04436998     0.14100
C505        C  0.77831256  0.58424624  0.99956517    -0.15500
C506        C  0.77470651  0.55854057  0.02440087    -0.30600
H507        H  0.80775990  0.60701675  0.99032779     0.13600
H508        H  0.74486821  0.53496125  0.03206319     0.14100
C509        C  0.98775782  0.38533277  0.93244319    -0.15500
C510        C  0.01296209  0.40355028  0.95949025    -0.30600
H511        H  0.99968509  0.38565310  0.90646405     0.13600
H512        H  0.00085212  0.40328204  0.98538085     0.14100
C513        C  0.85736104  0.42857130  0.00266146    -0.15500
C514        C  0.87165252  0.46649085  0.99402361    -0.30600
H515        H  0.84215728  0.41744978  0.02767580     0.13600
H516        H  0.88589323  0.47756934  0.96867108     0.14100
C517        C  0.61003940  0.01153581  0.08387830    -0.15500
C518        C  0.64145360  0.03684065  0.06394221    -0.30600
H519        H  0.59890709  0.02322751  0.10397909     0.13600
H520        H  0.65177499  0.02564765  0.04274850     0.14100
C521        C  0.57761684  0.14574739  0.01646794    -0.15500
C522        C  0.57995624  0.17201918  0.99304266    -0.30600
H523        H  0.54857432  0.12031090  0.02338821     0.13600
H524        H  0.60897005  0.19725570  0.98572006     0.14100
C525        C  0.78456532  0.22922325  0.01430393    -0.15500
C526        C  0.78451303  0.23753556  0.98010290    -0.30600
H527        H  0.81095734  0.24760806  0.03031846     0.13600
H528        H  0.75760048  0.21960728  0.96451841     0.14100
C529        C  0.35725183  0.86483742  0.81701258    -0.15500
C530        C  0.32753554  0.86694403  0.83305372    -0.30600
H531        H  0.38570681  0.87687504  0.83075492     0.13600
H532        H  0.29889544  0.85579893  0.81994859     0.14100
C533        C  0.41867634  0.56018166  0.50316556    -0.15500
C534        C  0.45101392  0.59306212  0.49083186    -0.30600
H535        H  0.41495947  0.55473365  0.53127975     0.13600
H536        H  0.45539271  0.59777527  0.46266131     0.14100
C537        C  0.23321192  0.45921282  0.49497894    -0.15500
C538        C  0.23730337  0.49007491  0.51379790    -0.30600
H539        H  0.20550139  0.43059937  0.49594152     0.13600
H540        H  0.26586427  0.51801101  0.51340327     0.14100
C541        C  0.32298333  0.85989405  0.67196215    -0.15500
C542        C  0.33555052  0.83623966  0.68396111    -0.30600
H543        H  0.31290084  0.87430237  0.69017251     0.13600
H544        H  0.34384462  0.82089886  0.66503400     0.14100
C545        C  0.14484300  0.57586406  0.49918299    -0.15500
C546        C  0.14207967  0.60645266  0.51097251    -0.30600
H547        H  0.14542617  0.57088166  0.47110027     0.13600
H548        H  0.13978186  0.61047440  0.53900625     0.14100
C549        C  0.23108434  0.78473770  0.49184934    -0.15500
C550        C  0.22860147  0.80932926  0.51502417    -0.30600
H551        H  0.26008233  0.78761992  0.48730823     0.13600
H552        H  0.20043657  0.80819686  0.51937788     0.14100
C553        C  0.44555942  0.88037885  0.51162179    -0.15500
C554        C  0.41834550  0.88887463  0.50020796    -0.30600
H555        H  0.44603377  0.87364263  0.53918384     0.13600
H556        H  0.41861225  0.89681962  0.47289454     0.14100
C557        C  0.55857231  0.78699487  0.51084190    -0.15500
C558        C  0.53280489  0.78626497  0.48708370    -0.30600
H559        H  0.58506294  0.81482230  0.51852141     0.13600
H560        H  0.50670252  0.75805586  0.47946535     0.14100
C561        C  0.37855829  0.37859702  0.44126896    -0.15500
C562        C  0.39074893  0.41502904  0.42936396    -0.30600
H563        H  0.34853016  0.36001725  0.45191186     0.13600
H564        H  0.42068648  0.43270085  0.41820046     0.14100
C565        C  0.38969970  0.03640162  0.55304492    -0.15500
C566        C  0.39542014  0.01199470  0.57312014    -0.30600
H567        H  0.36510128  0.02459346  0.53433520     0.13600
H568        H  0.42054380  0.02442207  0.59132512     0.14100
C569        C  0.43368621  0.22599634  0.51361963    -0.15500
C570        C  0.43768765  0.23389338  0.47907517    -0.30600
H571        H  0.42798027  0.24397213  0.53172810     0.13600
H572        H  0.44411673  0.21633855  0.46106371     0.14100
C573        C  0.61668207  0.64441853  0.55731646    -0.15500
C574        C  0.60884683  0.61328175  0.57714756    -0.30600
H575        H  0.64184432  0.65711471  0.53911006     0.13600
H576        H  0.58323498  0.60083438  0.59490570     0.14100
C577        C  0.54930722  0.42316601  0.51038467    -0.15500
C578        C  0.57704801  0.45972797  0.49981474    -0.30600
H579        H  0.54789664  0.41497029  0.53776867     0.13600
H580        H  0.57776860  0.46817096  0.47260444     0.14100
C581        C  0.98988351  0.63425132  0.45441349    -0.15500
C582        C  0.01465898  0.62504973  0.43812415    -0.30600
H583        H  0.00176944  0.66145030  0.46966065     0.13600
H584        H  0.00210896  0.59731044  0.42356766     0.14100
C585        C  0.78685732  0.57371512  0.50464166    -0.15500
C586        C  0.75831115  0.54566981  0.52521072    -0.30600
H587        H  0.78733160  0.60095112  0.49961390     0.13600
H588        H  0.75820335  0.51847857  0.52963876     0.14100
C589        C  0.02420149  0.42623823  0.57096122    -0.15500
C590        C  0.00001253  0.39107362  0.55534208    -0.30600
H591        H  0.01104186  0.44102636  0.58480799     0.13600
H592        H  0.01228274  0.37580676  0.54095810     0.14100
C593        C  0.88031523  0.43823104  0.49710980    -0.15500
C594        C  0.87526985  0.46643861  0.51182350    -0.30600
H595        H  0.88444517  0.43779600  0.46885833     0.13600
H596        H  0.87221388  0.46735962  0.54018878     0.14100
C597        C  0.61416383  0.02785789  0.42677729    -0.15500
C598        C  0.61724752  0.00401409  0.44981649    -0.30600
H599        H  0.59120408  0.01508637  0.40648133     0.13600
H600        H  0.64039048  0.01627542  0.46992441     0.14100
C601        C  0.58609516  0.14785334  0.50317939    -0.15500
C602        C  0.57036582  0.17065221  0.49810087    -0.30600
H603        H  0.57498019  0.12652996  0.52443504     0.13600
H604        H  0.58181617  0.19243330  0.47720637     0.14100
C605        C  0.77758668  0.22693370  0.49046556    -0.15500
C606        C  0.77956101  0.25782211  0.50758752    -0.30600
H607        H  0.80285772  0.22246918  0.49061653     0.13600
H608        H  0.75369037  0.26136835  0.50734316     0.14100
C609        C  0.84387288  0.36336471  0.67952958    -0.15500
C610        C  0.84650883  0.33463569  0.66274942    -0.30600
H611        H  0.85510238  0.39133790  0.66605967     0.13600
H612        H  0.83572037  0.30624359  0.67521077     0.14100
C613        C  0.83274148  0.34595624  0.81202728    -0.15500
C614        C  0.82293041  0.35658002  0.84238908    -0.30600
H615        H  0.85345191  0.33528334  0.81258000     0.13600
H616        H  0.80411253  0.36937929  0.84220902     0.14100
C617        C  0.52047254  0.70044628  0.68500216    -0.15500
C618        C  0.49613662  0.68735231  0.65677893    -0.30600
H619        H  0.55208493  0.71051287  0.68154547     0.13600
H620        H  0.46420491  0.67556521  0.65966087     0.14100
C621        C  0.53400387  0.71353587  0.81830690    -0.15500
C622        C  0.51833437  0.71477166  0.84968472    -0.30600
H623        H  0.56200530  0.71379206  0.81690926     0.13600
H624        H  0.49003207  0.71402019  0.85009957     0.14100
C625        C  0.39091647  0.75267548  0.73803463    -0.12400
C626        C  0.40864353  0.79291998  0.74692773     0.09800
C627        C  0.44982494  0.81475293  0.75521823    -0.12400
C628        C  0.47233841  0.79627968  0.75562665    -0.12400
C629        C  0.45408840  0.75574946  0.74756531     0.09800
C630        C  0.41332998  0.73441712  0.73825275    -0.12400
H631        H  0.35913141  0.73441972  0.73263626     0.13800
H632        H  0.46442650  0.84586376  0.76205129     0.13800
H633        H  0.50376987  0.81346001  0.76281418     0.13800
H634        H  0.39792354  0.70296701  0.73289884     0.13800
C635        C  0.20075308  0.54103611  0.68704433    -0.15500
C636        C  0.17612892  0.50581399  0.67168621    -0.30600
H637        H  0.21531309  0.56741883  0.67087980     0.13600
H638        H  0.16291828  0.47887002  0.68699471     0.14100
C639        C  0.19486911  0.52506935  0.85230530    -0.15500
C640        C  0.18114664  0.51174758  0.81956532    -0.30600
H641        H  0.22370352  0.55243216  0.85527801     0.13600
H642        H  0.15229266  0.48478084  0.81548430     0.14100
C643        C  0.25074151  0.66505494  0.73301648    -0.12400
C644        C  0.24816032  0.64572910  0.76450012     0.09800
C645        C  0.26318211  0.66794767  0.79559964    -0.12400
C646        C  0.28191890  0.70907732  0.79498168    -0.12400
C647        C  0.28565576  0.72868253  0.76326278     0.09800
C648        C  0.26916145  0.70624200  0.73243805    -0.12400
H649        H  0.23926169  0.64835544  0.70878226     0.13800
H650        H  0.26235655  0.65369047  0.82004679     0.13800
H651        H  0.29534743  0.72555616  0.81896135     0.13800
H652        H  0.27148920  0.72061147  0.70770443     0.13800
C653        C  0.33650771  0.59921560  0.72747668    -0.12400
C654        C  0.31586908  0.58856384  0.75969639     0.09800
C655        C  0.33812094  0.59946592  0.79099511    -0.12400
C656        C  0.37998830  0.62196330  0.79019211    -0.12400
C657        C  0.40090638  0.63393139  0.75801136     0.09800
C658        C  0.37860872  0.62138226  0.72662536    -0.12400
H659        H  0.32007118  0.59098487  0.70293348     0.13800
H660        H  0.32316729  0.59263073  0.81629201     0.13800
H661        H  0.39561478  0.63180324  0.81504519     0.13800
H662        H  0.39356550  0.62952308  0.70136401     0.13800
C663        C  0.49757011  0.18872327  0.68524836    -0.15500
C664        C  0.51611590  0.20550832  0.65473127    -0.30600
H665        H  0.46806102  0.16190338  0.68520862     0.13600
H666        H  0.54599549  0.23189724  0.65538921     0.14100
C667        C  0.51418601  0.20775665  0.84759764    -0.15500
C668        C  0.50110682  0.18537006  0.81829999    -0.30600
H669        H  0.53796712  0.23860510  0.84638745     0.13600
H670        H  0.47661267  0.15474233  0.82002122     0.14100
C671        C  0.64997521  0.25542131  0.77939026    -0.12400
C672        C  0.62684741  0.24538868  0.74855617     0.09800
C673        C  0.64694332  0.25795330  0.71607756    -0.12400
C674        C  0.68863898  0.28038616  0.71437668    -0.12400
C675        C  0.71189450  0.29126308  0.74509437     0.09800
C676        C  0.69212302  0.27814413  0.77765514    -0.12400
H677        H  0.63558209  0.24632587  0.80477205     0.13800
H678        H  0.63062492  0.25251334  0.69171414     0.13800
H679        H  0.70236403  0.29092191  0.68892548     0.13800
H680        H  0.70914917  0.28575326  0.80187624     0.13800
C681        C  0.65206491  0.50326308  0.69050578    -0.15500
C682        C  0.67993132  0.53442950  0.67221036    -0.30600
H683        H  0.62287065  0.48390769  0.67845725     0.13600
H684        H  0.70921664  0.55458648  0.68364169     0.14100
C685        C  0.68254679  0.52475706  0.82088767    -0.15500
C686        C  0.68217515  0.50940848  0.85236638    -0.30600
H687        H  0.68492746  0.55341653  0.82005125     0.13600
H688        H  0.67832383  0.48029569  0.85423368     0.14100
C689        C  0.60892845  0.33019804  0.77747521    -0.12400
C690        C  0.56929818  0.30820031  0.76501572     0.09800
C691        C  0.54832177  0.32759825  0.75871377    -0.12400
C692        C  0.56764626  0.36872847  0.76230026    -0.12400
C693        C  0.60853909  0.39121810  0.77162192     0.09800
C694        C  0.62831927  0.37127076  0.78073273    -0.12400
H695        H  0.62591161  0.31621009  0.78231561     0.13800
H696        H  0.51739853  0.31110469  0.74981296     0.13800
H697        H  0.55126625  0.38311691  0.75586301     0.13800
H698        H  0.65986683  0.38738178  0.78777239     0.13800
C699        C  0.73298928  0.43425552  0.72062331    -0.12400
C700        C  0.72921305  0.45163936  0.75167772     0.09800
C701        C  0.74716965  0.44870640  0.78262837    -0.12400
C702        C  0.76848125  0.42884436  0.78233822    -0.12400
C703        C  0.77253527  0.41216844  0.75100785     0.09800
C704        C  0.75433861  0.41493016  0.72030222    -0.12400
H705        H  0.71821428  0.43418438  0.69660277     0.13800
H706        H  0.74458295  0.46153781  0.80702895     0.13800
H707        H  0.78190465  0.42665645  0.80639743     0.13800
H708        H  0.75572686  0.40112753  0.69601318     0.13800
C709        C  0.49419318  0.83402277  0.32606682    -0.15500
C710        C  0.52951648  0.85924595  0.34140053    -0.30600
H711        H  0.46737271  0.81909135  0.34232786     0.13600
H712        H  0.55719337  0.87291122  0.32628846     0.14100
C713        C  0.52137448  0.85270846  0.19245708    -0.15500
C714        C  0.50430864  0.83863336  0.16069229    -0.30600
H715        H  0.54963349  0.88068643  0.19504811     0.13600
H716        H  0.47512294  0.81135140  0.15963104     0.14100
C717        C  0.18587116  0.69231253  0.32182988    -0.15500
C718        C  0.16239527  0.70376444  0.33731088    -0.30600
H719        H  0.19954656  0.68001076  0.33809579     0.13600
H720        H  0.15013823  0.71823005  0.32217738     0.14100
C721        C  0.17292901  0.70278554  0.18807185    -0.15500
C722        C  0.18991046  0.70716877  0.15605585    -0.30600
H723        H  0.14317617  0.69859699  0.19063815     0.13600
H724        H  0.21979223  0.71143460  0.15447953     0.14100
C725        C  0.36671696  0.78374064  0.21914801    -0.12400
C726        C  0.38774510  0.79144169  0.25095149     0.09800
C727        C  0.36689926  0.78494863  0.28279918    -0.12400
C728        C  0.32541349  0.76963870  0.28276764    -0.12400
C729        C  0.30423838  0.76053608  0.25090398     0.09800
C730        C  0.32550189  0.76849593  0.21911631    -0.12400
H731        H  0.38169529  0.78748369  0.19415121     0.13800
H732        H  0.38249650  0.79100270  0.30764990     0.13800
H733        H  0.30968083  0.76371129  0.30762065     0.13800
H734        H  0.30999082  0.76063057  0.19412249     0.13800
C735        C  0.67880904  0.21275854  0.15785146    -0.15500
C736        C  0.68227516  0.20036230  0.18962860    -0.30600
H737        H  0.67177715  0.23578989  0.15540152     0.13600
H738        H  0.68777560  0.17609412  0.19108149     0.14100
C739        C  0.66127076  0.19643358  0.32105285    -0.15500
C740        C  0.69002403  0.19273953  0.33652698    -0.30600
H741        H  0.63302821  0.18572996  0.33497849     0.13600
H742        H  0.71836485  0.20256499  0.32317189     0.14100
C743        C  0.82952679  0.53137713  0.19293541    -0.15500
C744        C  0.82131974  0.50758995  0.16486214    -0.30600
H745        H  0.85017813  0.56308549  0.19037218     0.13600
H746        H  0.80316859  0.47570875  0.16790376     0.14100
C747        C  0.83031576  0.53211938  0.32618626    -0.15500
C748        C  0.81415888  0.51402018  0.35689566    -0.30600
H749        H  0.85881624  0.56007826  0.32583667     0.13600
H750        H  0.78606336  0.48563965  0.35660295     0.14100
C751        C  0.72991081  0.38431849  0.23531100    -0.12400
C752        C  0.76656593  0.40734048  0.25308704     0.09800
C753        C  0.78411930  0.38785193  0.26901977    -0.12400
C754        C  0.76442396  0.34639626  0.26868117    -0.12400
C755        C  0.72704416  0.32354671  0.25197282     0.09800
C756        C  0.71062097  0.34313292  0.23458469    -0.12400
H757        H  0.71458289  0.39762308  0.22351435     0.13800
H758        H  0.81263915  0.40450490  0.28247003     0.13800
H759        H  0.77808653  0.33220684  0.28200367     0.13800
H760        H  0.68159222  0.32676933  0.22200702     0.13800
C761        C  0.32347376  0.52605976  0.32014666    -0.15500
C762        C  0.30946087  0.48981553  0.33349565    -0.30600
H763        H  0.33731542  0.55144802  0.33784149     0.13600
H764        H  0.29406433  0.46372491  0.31678485     0.14100
C765        C  0.32412373  0.52420496  0.15401851    -0.15500
C766        C  0.31898623  0.50699439  0.18565339    -0.30600
H767        H  0.32814918  0.55355887  0.15331015     0.13600
H768        H  0.31573329  0.47807119  0.18774704     0.14100
C769        C  0.27846122  0.65305402  0.26107103    -0.12400
C770        C  0.23955973  0.63839336  0.24805483     0.09800
C771        C  0.21771111  0.59917666  0.23536701    -0.12400
C772        C  0.23468651  0.57528765  0.23575767    -0.12400
C773        C  0.27378587  0.59028671  0.24878994     0.09800
C774        C  0.29526611  0.62943024  0.26144677    -0.12400
H775        H  0.29687406  0.68345197  0.26983778     0.13800
H776        H  0.18761509  0.58702973  0.22519129     0.13800
H777        H  0.21733904  0.54523223  0.22578608     0.13800
H778        H  0.32591766  0.64274951  0.27040938     0.13800
C779        C  0.40772752  0.65775882  0.28190823    -0.12400
C780        C  0.39713115  0.63689998  0.24973797     0.09800
C781        C  0.41215737  0.65838743  0.21845694    -0.12400
C782        C  0.43506790  0.69962174  0.21912489    -0.12400
C783        C  0.44365142  0.72065631  0.25107547     0.09800
C784        C  0.43061555  0.69926780  0.28256423    -0.12400
H785        H  0.39721166  0.64211331  0.30652863     0.13800
H786        H  0.40399998  0.64368046  0.19310563     0.13800
H787        H  0.44377427  0.71494497  0.19425938     0.13800
H788        H  0.43727972  0.71458443  0.30763069     0.13800
C789        C  0.49362465  0.34544899  0.17953340    -0.15500
C790        C  0.51511058  0.35537477  0.14963890    -0.30600
H791        H  0.46177242  0.33507687  0.17804851     0.13600
H792        H  0.54730786  0.36781310  0.15039732     0.14100
C793        C  0.48738706  0.34350751  0.31287583    -0.15500
C794        C  0.50535294  0.34532019  0.34363055    -0.30600
H795        H  0.45782550  0.33999409  0.31240089     0.13600
H796        H  0.53519638  0.34937246  0.34319442     0.14100
C797        C  0.58173325  0.29379233  0.27632545    -0.12400
C798        C  0.56547757  0.29786663  0.24502368     0.09800
C799        C  0.57269772  0.28381601  0.21338313    -0.12400
C800        C  0.59424626  0.26413623  0.21361738    -0.12400
C801        C  0.60866369  0.25850052  0.24548243     0.09800
C802        C  0.60307900  0.27462911  0.27653535    -0.12400
H803        H  0.57850286  0.30605880  0.30084593     0.13800
H804        H  0.56119568  0.28749245  0.18878616     0.13800
H805        H  0.59920439  0.25295580  0.18920986     0.13800
H806        H  0.61569829  0.27286688  0.30124911     0.13800
C807        C  0.64164358  0.43205029  0.22030528    -0.12400
C808        C  0.61818779  0.41694866  0.25084414     0.09800
C809        C  0.63777900  0.42609564  0.28360097    -0.12400
C810        C  0.67934192  0.44975863  0.28591936    -0.12400
C811        C  0.70300377  0.46490386  0.25557325     0.09800
C812        C  0.68372275  0.45591020  0.22265040    -0.12400
H813        H  0.62749664  0.42526084  0.19467642     0.13800
H814        H  0.62118197  0.41361715  0.30770814     0.13800
H815        H  0.69298048  0.45443550  0.31163535     0.13800
H816        H  0.70117233  0.46689366  0.19871772     0.13800
loop_ 
_geom_bond_atom_site_label_1 
_geom_bond_atom_site_label_2 
_geom_bond_distance 
_geom_bond_site_symmetry_2 
_ccdc_geom_bond_type 
C1            C2   1.531       .  S
C1            C7   1.525       .  S
C1            C5   1.531       .  S
C1          C793   1.516       .  S
C2            H9   1.087       .  S
C2            C3   1.366       .  D
C3            C4   1.537       .  S
C3          C798   1.482       .  S
C4            C8   1.560       .  S
C4            C6   1.546       .  S
C4           H10   1.108       .  S
C5           H11   1.087       .  S
C5            C6   1.365       .  D
C6          C808   1.493       .  S
C7           H12   1.086       .  S
C7            C8   1.371       .  D
C8          C789   1.489       .  S
C13          C14   1.542       .  S
C13          C19   1.540       .  S
C13          C17   1.542       .  S
C13         C766   1.525       .  S
C14          H21   1.086       .  S
C14          C15   1.367       .  D
C15          C16   1.539       .  S
C15         C773   1.490       .  S
C16          C20   1.538       .  S
C16          C18   1.534       .  S
C16          H22   1.109       .  S
C17          H23   1.086       .  S
C17          C18   1.366       .  D
C18         C780   1.491       .  S
C19          H24   1.085       .  S
C19          C20   1.374       .  D
C20         C761   1.487       .  S
C25          C26   1.535       .  S
C25          C31   1.531       .  S
C25          C29   1.540       .  S
C25         C747   1.516       .  S
C26          H33   1.086       .  S
C26          C27   1.370       .  D
C27          C28   1.538       .  S
C27         C811   1.490       .  S
C28          C32   1.549       .  S
C28          C30   1.542       .  S
C28          H34   1.105       .  S
C29          H35   1.085       .  S
C29          C30   1.367       .  D
C30         C752   1.495       .  S
C31          H36   1.086       .  S
C31          C32   1.366       .  D
C32         C743   1.486       .  S
C37          C38   1.541       .  S
C37          C43   1.524       .  S
C37          C41   1.531       .  S
C37         C739   1.511       .  S
C38          H45   1.086       .  S
C38          C39   1.371       .  D
C39          C40   1.541       .  S
C39         C755   1.490       .  S
C40          C44   1.557       .  S
C40          C42   1.539       .  S
C40          H46   1.106       .  S
C41          H47   1.087       .  S
C41          C42   1.364       .  D
C42         C801   1.487       .  S
C43          H48   1.086       .  S
C43          C44   1.367       .  D
C44         C736   1.489       .  S
C49          C50   1.538       .  S
C49          C55   1.543       .  S
C49          C53   1.545       .  S
C49         C721   1.522       .  S
C50          H57   1.086       .  S
C50          C51   1.365       .  D
C51          C52   1.533       .  S
C51         C729   1.482       .  S
C52          C56   1.534       .  S
C52          C54   1.534       .  S
C52          H58   1.109       .  S
C53          H59   1.086       .  S
C53          C54   1.366       .  D
C54         C770   1.488       .  S
C55          H60   1.085       .  S
C55          C56   1.374       .  D
C56         C717   1.485       .  S
C61          C62   1.534       .  S
C61          C67   1.539       .  S
C61          C65   1.536       .  S
C61         C713   1.520       .  S
C62          H69   1.086       .  S
C62          C63   1.365       .  D
C63          C64   1.541       .  S
C63         C783   1.489       .  S
C64          C68   1.542       .  S
C64          C66   1.535       .  S
C64          H70   1.110       .  S
C65          H71   1.087       .  S
C65          C66   1.358       .  D
C66         C726   1.481       .  S
C67          H72   1.085       .  S
C67          C68   1.378       .  D
C68         C709   1.482       .  S
C73          C74   1.533       .  S
C73          C79   1.527       .  S
C73          C77   1.532       .  S
C73         C681   1.509       .  S
C74          H81   1.086       .  S
C74          C75   1.368       .  D
C75          C76   1.542       .  S
C75         C700   1.491       .  S
C76          C80   1.556       .  S
C76          C78   1.543       .  S
C76          H82   1.105       .  S
C77          H83   1.087       .  S
C77          C78   1.365       .  D
C78         C693   1.488       .  S
C79          H84   1.086       .  S
C79          C80   1.369       .  D
C80         C685   1.492       .  S
C85          C86   1.541       .  S
C85          C91   1.529       .  S
C85          C89   1.531       .  S
C85         C663   1.513       .  S
C86          H93   1.085       .  S
C86          C87   1.368       .  D
C87          C88   1.532       .  S
C87         C690   1.480       .  S
C88          C92   1.551       .  S
C88          C90   1.543       .  S
C88          H94   1.107       .  S
C89          H95   1.086       .  S
C89          C90   1.364       .  D
C90         C672   1.494       .  S
C91          H96   1.086       .  S
C91          C92   1.368       .  D
C92         C668   1.483       .  S
C97          C98   1.537       .  S
C97         C103   1.541       .  S
C97         C101   1.538       .  S
C97         C640   1.519       .  S
C98         H105   1.086       .  S
C98          C99   1.367       .  D
C99         C100   1.539       .  S
C99         C654   1.486       .  S
C100        C104   1.537       .  S
C100        C102   1.532       .  S
C100        H106   1.110       .  S
C101        H107   1.087       .  S
C101        C102   1.360       .  D
C102        C644   1.475       .  S
C103        H108   1.085       .  S
C103        C104   1.376       .  D
C104        C635   1.486       .  S
C109        C110   1.538       .  S
C109        C115   1.533       .  S
C109        C113   1.537       .  S
C109        C621   1.520       .  S
C110        H117   1.086       .  S
C110        C111   1.366       .  D
C111        C112   1.538       .  S
C111        C629   1.484       .  S
C112        C116   1.550       .  S
C112        C114   1.541       .  S
C112        H118   1.105       .  S
C113        H119   1.085       .  S
C113        C114   1.367       .  D
C114        C657   1.495       .  S
C115        H120   1.086       .  S
C115        C116   1.371       .  D
C116        C617   1.491       .  S
C121        C122   1.535       .  S
C121        C127   1.528       .  S
C121        C125   1.534       .  S
C121        C609   1.516       .  S
C122        H129   1.086       .  S
C122        C123   1.372       .  D
C123        C124   1.543       .  S
C123        C675   1.491       .  S
C124        C128   1.554       .  S
C124        C126   1.539       .  S
C124        H130   1.108       .  S
C125        H131   1.087       .  S
C125        C126   1.363       .  D
C126        C703   1.485       .  S
C127        H132   1.086       .  S
C127        C128   1.370       .  D
C128        C613   1.488       .  S
In133       O135   2.244       .  S
In133       O136   2.255       .  S
In133       O144   2.223       .  S
In133       O138   2.276       .  S
In133       O140   2.261       .  S
In133       O141   2.229       .  S
In133       O142   2.235       .  S
In133       O145   2.265       .  S
C134        C597   1.471       .  S
C134        O140   1.262       .  A
C134        O142   1.257       .  A
O135        C143   1.259       .  A
O136        C143   1.262       .  A
C137        C605   1.480       .  S
C137        O144   1.259       .  A
C137        O138   1.263       .  A
C139        C740   1.478       .  S
C139        O141   1.261       .  A
C139        O145   1.262       .  A
C143        C601   1.473       .  S
In146       O148   2.259       .  S
In146       O149   2.242       .  S
In146       O157   2.218       .  S
In146       O151   2.276       .  S
In146       O153   2.284       .  S
In146       O154   2.228       .  S
In146       O155   2.206       .  S
In146       O158   2.284       .  S
C147        C590   1.478   1_655  S
C147        O153   1.262       .  A
C147        O155   1.257       .  A
O148        C156   1.262       .  A
O149        C156   1.261       .  A
C150        C606   1.472       .  S
C150        O157   1.257       .  A
C150        O151   1.265       .  A
C152        C610   1.483       .  S
C152        O154   1.258       .  A
C152        O158   1.262       .  A
C156        C593   1.477       .  S
In159       O161   2.246       .  S
In159       O162   2.256       .  S
In159       O170   2.229       .  S
In159       O164   2.271       .  S
In159       O166   2.269       .  S
In159       O167   2.236       .  S
In159       O168   2.226       .  S
In159       O171   2.275       .  S
C160        C581   1.477       .  S
C160        O166   1.261       .  A
C160        O168   1.259       .  A
O161        C169   1.260       .  A
O162        C169   1.262       .  A
C163        C585   1.480       .  S
C163        O170   1.259       .  A
C163        O164   1.262       .  A
C165        C748   1.472       .  S
C165        O167   1.256       .  A
C165        O171   1.260       .  A
C169        C594   1.475       .  S
In172       O174   2.244       .  S
In172       O175   2.244       .  S
In172       O183   2.214       .  S
In172       O177   2.275       .  S
In172       O179   2.281       .  S
In172       O180   2.218       .  S
In172       O181   2.212       .  S
In172       O184   2.253       .  S
C173        C574   1.473       .  S
C173        O179   1.267       .  A
C173        O181   1.256       .  A
O174        C182   1.261       .  A
O175        C182   1.262       .  A
C176        C586   1.473       .  S
C176        O183   1.258       .  A
C176        O177   1.268       .  A
C178        C682   1.474       .  S
C178        O180   1.263       .  A
C178        O184   1.263       .  A
C182        C578   1.473       .  S
In185       O187   2.256       .  S
In185       O188   2.256       .  S
In185       O196   2.237       .  S
In185       O190   2.248       .  S
In185       O192   2.273       .  S
In185       O193   2.240       .  S
In185       O194   2.236       .  S
In185       O197   2.261       .  S
C186        C565   1.479       .  S
C186        O192   1.259       .  A
C186        O194   1.258       .  A
O187        C195   1.257       .  A
O188        C195   1.259       .  A
C189        C569   1.472       .  S
C189        O196   1.261       .  A
C189        O190   1.261       .  A
C191        C664   1.470       .  S
C191        O193   1.259       .  A
C191        O197   1.261       .  A
C195        C602   1.474       .  S
In198       O200   2.256       .  S
In198       O201   2.255       .  S
In198       O209   2.253       .  S
In198       O203   2.251       .  S
In198       O205   2.279       .  S
In198       O206   2.222       .  S
In198       O207   2.226       .  S
In198       O210   2.261       .  S
C199        C561   1.479       .  S
C199        O205   1.260       .  A
C199        O207   1.257       .  A
O200        C208   1.257       .  A
O201        C208   1.259       .  A
C202        C570   1.472       .  S
C202        O209   1.257       .  A
C202        O203   1.260       .  A
C204        C794   1.469       .  S
C204        O206   1.262       .  A
C204        O210   1.265       .  A
C208        C577   1.473       .  S
In211       O213   2.256       .  S
In211       O214   2.232       .  S
In211       O222   2.222       .  S
In211       O216   2.269       .  S
In211       O218   2.264       .  S
In211       O219   2.262       .  S
In211       O220   2.227       .  S
In211       O223   2.246       .  S
C212        C598   1.475   1_565  S
C212        O218   1.263       .  A
C212        O220   1.260       .  A
O213        C221   1.262       .  A
O214        C221   1.264       .  A
C215        C558   1.473       .  S
C215        O222   1.259       .  A
C215        O216   1.266       .  A
C217        C553   1.475       .  S
C217        O219   1.262       .  A
C217        O223   1.257       .  A
C221        C710   1.477       .  S
In224       O226   2.242       .  S
In224       O227   2.246       .  S
In224       O235   2.205       .  S
In224       O229   2.269       .  S
In224       O231   2.278       .  S
In224       O232   2.236       .  S
In224       O233   2.216       .  S
In224       O236   2.261       .  S
C225        C549   1.474       .  S
C225        O231   1.266       .  A
C225        O233   1.259       .  A
O226        C234   1.259       .  A
O227        C234   1.263       .  A
C228        C582   1.468       .  S
C228        O235   1.257       .  A
C228        O229   1.267       .  A
C230        C718   1.482       .  S
C230        O232   1.264       .  A
C230        O236   1.263       .  A
C234        C546   1.471       .  S
In237       O239   2.249       .  S
In237       O240   2.250       .  S
In237       O248   2.218       .  S
In237       O242   2.277       .  S
In237       O244   2.286       .  S
In237       O245   2.249       .  S
In237       O246   2.225       .  S
In237       O249   2.265       .  S
C238        C550   1.481       .  S
C238        O244   1.263       .  A
C238        O246   1.258       .  A
O239        C247   1.260       .  A
O240        C247   1.263       .  A
C241        C566   1.472   1_565  S
C241        O248   1.257       .  A
C241        O242   1.265       .  A
C243        C541   1.483       .  S
C243        O245   1.262       .  A
C243        O249   1.261       .  A
C247        C554   1.476       .  S
In250       O252   2.243       .  S
In250       O253   2.244       .  S
In250       O261   2.214       .  S
In250       O255   2.276       .  S
In250       O257   2.271       .  S
In250       O258   2.246       .  S
In250       O259   2.225       .  S
In250       O262   2.265       .  S
C251        C537   1.478       .  S
C251        O257   1.264       .  A
C251        O259   1.260       .  A
O252        C260   1.261       .  A
O253        C260   1.264       .  A
C254        C562   1.471       .  S
C254        O261   1.257       .  A
C254        O255   1.266       .  A
C256        C762   1.482       .  S
C256        O258   1.261       .  A
C256        O262   1.260       .  A
C260        C533   1.473       .  S
In263       O265   2.248       .  S
In263       O266   2.249       .  S
In263       O274   2.234       .  S
In263       O268   2.273       .  S
In263       O270   2.273       .  S
In263       O271   2.249       .  S
In263       O272   2.236       .  S
In263       O275   2.265       .  S
C264        C557   1.479       .  S
C264        O270   1.261       .  A
C264        O272   1.258       .  A
O265        C273   1.260       .  A
O266        C273   1.261       .  A
C267        C573   1.480       .  S
C267        O274   1.259       .  A
C267        O268   1.260       .  A
C269        C618   1.478       .  S
C269        O271   1.258       .  A
C269        O275   1.261       .  A
C273        C534   1.473       .  S
In276       O278   2.252       .  S
In276       O279   2.250       .  S
In276       O287   2.221       .  S
In276       O281   2.266       .  S
In276       O283   2.272       .  S
In276       O284   2.246       .  S
In276       O285   2.200       .  S
In276       O288   2.240       .  S
C277        C589   1.466       .  S
C277        O283   1.266       .  A
C277        O285   1.257       .  A
O278        C286   1.261       .  A
O279        C286   1.263       .  A
C280        C538   1.472       .  S
C280        O287   1.259       .  A
C280        O281   1.265       .  A
C282        C545   1.470       .  S
C282        O284   1.263       .  A
C282        O288   1.259       .  A
C286        C636   1.479       .  S
C289        C290   1.537       .  S
C289        C295   1.540       .  S
C289        C293   1.540       .  S
C289        C529   1.514       .  S
C290        H297   1.086       .  S
C290        C291   1.365       .  D
C291        C292   1.535       .  S
C291        C647   1.480       .  S
C292        C296   1.537       .  S
C292        C294   1.536       .  S
C292        H298   1.109       .  S
C293        H299   1.086       .  S
C293        C294   1.364       .  D
C294        C626   1.488       .  S
C295        H300   1.085       .  S
C295        C296   1.374       .  D
C296        C542   1.488       .  S
In301       O303   2.254       .  S
In301       O304   2.244       .  S
In301       O312   2.251       .  S
In301       O306   2.266       .  S
In301       O308   2.264       .  S
In301       O309   2.242       .  S
In301       O310   2.238       .  S
In301       O313   2.267       .  S
C302        C525   1.479       .  S
C302        O308   1.262       .  A
C302        O310   1.260       .  A
O303        C311   1.260       .  A
O304        C311   1.257       .  A
C305        C518   1.481       .  S
C305        O312   1.260       .  A
C305        O306   1.260       .  A
C307        C735   1.476       .  S
C307        O309   1.257       .  A
C307        O313   1.263       .  A
C311        C521   1.469       .  S
In314       O316   2.240       .  S
In314       O317   2.262       .  S
In314       O325   2.268       .  S
In314       O319   2.265       .  S
In314       O321   2.276       .  S
In314       O322   2.254       .  S
In314       O323   2.251       .  S
In314       O326   2.258       .  S
C315        C526   1.475       .  S
C315        O321   1.258       .  A
C315        O323   1.255       .  A
O316        C324   1.259       .  A
O317        C324   1.263       .  A
C318        C509   1.479       .  S
C318        O325   1.256       .  A
C318        O319   1.257       .  A
C320        C614   1.480       .  S
C320        O322   1.261       .  A
C320        O326   1.264       .  A
C324        C513   1.473   1_556  S
In327       O329   2.269       .  S
In327       O330   2.219       .  S
In327       O338   2.224       .  S
In327       O332   2.296       .  S
In327       O334   2.277       .  S
In327       O335   2.242       .  S
In327       O336   2.226       .  S
In327       O339   2.266       .  S
C328        C501   1.474       .  S
C328        O334   1.264       .  A
C328        O336   1.257       .  A
O329        C337   1.267       .  A
O330        C337   1.259       .  A
C331        C506   1.475       .  S
C331        O338   1.255       .  A
C331        O332   1.263       .  A
C333        C514   1.476   1_554  S
C333        O335   1.257       .  A
C333        O339   1.259       .  A
C337        C744   1.472       .  S
In340       O342   2.252       .  S
In340       O343   2.238       .  S
In340       O351   2.232       .  S
In340       O345   2.275       .  S
In340       O347   2.289       .  S
In340       O348   2.243       .  S
In340       O349   2.229       .  S
In340       O352   2.268       .  S
C341        C505   1.485       .  S
C341        O347   1.262       .  A
C341        O349   1.256       .  A
O342        C350   1.259       .  A
O343        C350   1.260       .  A
C344        C493   1.475       .  S
C344        O351   1.258       .  A
C344        O345   1.264       .  A
C346        C686   1.478       .  S
C346        O348   1.258       .  A
C346        O352   1.263       .  A
C350        C498   1.471   1_556  S
In353       O355   2.252       .  S
In353       O356   2.240       .  S
In353       O364   2.284       .  S
In353       O358   2.236       .  S
In353       O360   2.285       .  S
In353       O361   2.252       .  S
In353       O362   2.218       .  S
In353       O365   2.242       .  S
C354        C485   1.473       .  S
C354        O360   1.265       .  A
C354        O362   1.257       .  A
O355        C363   1.261       .  A
O356        C363   1.259       .  A
C357        C489   1.476   1_556  S
C357        O364   1.262       .  A
C357        O358   1.255       .  A
C359        C522   1.471       .  S
C359        O361   1.259       .  A
C359        O365   1.260       .  A
C363        C667   1.470       .  S
In366       O368   2.239       .  S
In366       O369   2.252       .  S
In366       O377   2.260       .  S
In366       O371   2.266       .  S
In366       O373   2.278       .  S
In366       O374   2.251       .  S
In366       O375   2.250       .  S
In366       O378   2.258       .  S
C367        C490   1.481   1_554  S
C367        O373   1.258       .  A
C367        O375   1.258       .  A
O368        C376   1.258       .  A
O369        C376   1.261       .  A
C370        C481   1.478       .  S
C370        O377   1.258       .  A
C370        O371   1.259       .  A
C372        C790   1.480       .  S
C372        O374   1.260       .  A
C372        O378   1.265       .  A
C376        C497   1.468   1_554  S
In379       O381   2.277       .  S
In379       O382   2.241       .  S
In379       O390   2.247       .  S
In379       O384   2.271       .  S
In379       O386   2.277       .  S
In379       O387   2.237       .  S
In379       O388   2.236       .  S
In379       O391   2.288       .  S
C380        C502   1.480       .  S
C380        O386   1.260       .  A
C380        O388   1.258       .  A
O381        C389   1.262       .  A
O382        C389   1.258       .  A
C383        C477   1.483       .  S
C383        O390   1.260       .  A
C383        O384   1.262       .  A
C385        C722   1.477       .  S
C385        O387   1.258       .  A
C385        O391   1.261       .  A
C389        C474   1.477       .  S
In392       O394   2.260       .  S
In392       O395   2.261       .  S
In392       O403   2.239       .  S
In392       O397   2.276       .  S
In392       O399   2.282       .  S
In392       O400   2.233       .  S
In392       O401   2.221       .  S
In392       O404   2.273       .  S
C393        C486   1.482   1_565  S
C393        O399   1.263       .  A
C393        O401   1.258       .  A
O394        C402   1.261       .  A
O395        C402   1.261       .  A
C396        C478   1.479       .  S
C396        O403   1.259       .  A
C396        O397   1.264       .  A
C398        C530   1.480       .  S
C398        O400   1.261       .  A
C398        O404   1.262       .  A
C402        C469   1.481   1_556  S
In405       O407   2.259       .  S
In405       O408   2.261       .  S
In405       O416   2.218       .  S
In405       O410   2.300       .  S
In405       O412   2.278       .  S
In405       O413   2.210       .  S
In405       O414   2.228       .  S
In405       O417   2.283       .  S
C406        C517   1.477   1_565  S
C406        O412   1.266       .  A
C406        O414   1.258       .  A
O407        C415   1.261       .  A
O408        C415   1.261       .  A
C409        C465   1.479       .  S
C409        O416   1.255       .  A
C409        O410   1.267       .  A
C411        C714   1.466       .  S
C411        O413   1.259       .  A
C411        O417   1.263       .  A
C415        C470   1.481   1_554  S
In418       O420   2.273       .  S
In418       O421   2.250       .  S
In418       O429   2.234       .  S
In418       O423   2.287       .  S
In418       O425   2.271       .  S
In418       O426   2.228       .  S
In418       O427   2.235       .  S
In418       O430   2.283       .  S
C419        C494   1.480       .  S
C419        O425   1.261       .  A
C419        O427   1.259       .  A
O420        C428   1.260       .  A
O421        C428   1.257       .  A
C422        C466   1.487       .  S
C422        O429   1.259       .  A
C422        O423   1.264       .  A
C424        C622   1.475       .  S
C424        O426   1.258       .  A
C424        O430   1.263       .  A
C428        C462   1.477       .  S
In431       O433   2.252       .  S
In431       O434   2.267       .  S
In431       O442   2.213       .  S
In431       O436   2.301       .  S
In431       O438   2.259       .  S
In431       O439   2.219       .  S
In431       O440   2.255       .  S
In431       O443   2.303       .  S
C432        C482   1.479       .  S
C432        O438   1.260       .  A
C432        O440   1.261       .  A
O433        C441   1.259       .  A
O434        C441   1.260       .  A
C435        C458   1.475       .  S
C435        O442   1.254       .  A
C435        O436   1.265       .  A
C437        C765   1.477       .  S
C437        O439   1.256       .  A
C437        O443   1.264       .  A
C441        C461   1.480       .  S
In444       O446   2.245       .  S
In444       O447   2.267       .  S
In444       O455   2.226       .  S
In444       O449   2.296       .  S
In444       O451   2.241       .  S
In444       O452   2.222       .  S
In444       O453   2.263       .  S
In444       O456   2.288       .  S
C445        C510   1.477       .  S
C445        O451   1.259       .  A
C445        O453   1.263       .  A
O446        C454   1.261       .  A
O447        C454   1.261       .  A
C448        C457   1.485       .  S
C448        O455   1.256       .  A
C448        O449   1.262       .  A
C450        C639   1.473       .  S
C450        O452   1.256       .  A
C450        O456   1.263       .  A
C454        C473   1.481       .  S
C457        H459   1.086   1_556  S
C457        C458   1.345   1_556  D
C458        H460   1.087   1_554  S
C461        H463   1.086       .  S
C461        C462   1.345   1_554  D
C462        H464   1.087       .  S
C465        H467   1.087       .  S
C465        C466   1.346   1_554  D
C466        H468   1.086       .  S
C469        H471   1.087       .  S
C469        C470   1.346   1_554  D
C470        H472   1.087       .  S
C473        H475   1.086       .  S
C473        C474   1.344   1_556  D
C474        H476   1.086       .  S
C477        H479   1.086       .  S
C477        C478   1.346   1_554  D
C478        H480   1.086       .  S
C481        H483   1.087       .  S
C481        C482   1.344       .  D
C482        H484   1.087       .  S
C485        H487   1.087       .  S
C485        C486   1.344       .  D
C486        H488   1.086       .  S
C489        H491   1.088       .  S
C489        C490   1.344   1_554  D
C490        H492   1.088       .  S
C493        H495   1.088       .  S
C493        C494   1.345       .  D
C494        H496   1.087       .  S
C497        H499   1.086       .  S
C497        C498   1.341   1_556  D
C498        H500   1.086       .  S
C501        H503   1.087   1_655  S
C501        C502   1.344   1_655  D
C502        H504   1.086       .  S
C505        H507   1.086       .  S
C505        C506   1.346   1_556  D
C506        H508   1.087       .  S
C509        H511   1.087       .  S
C509        C510   1.343   1_655  D
C510        H512   1.087       .  S
C513        H515   1.086       .  S
C513        C514   1.343   1_554  D
C514        H516   1.086       .  S
C517        H519   1.087       .  S
C517        C518   1.344       .  D
C518        H520   1.086       .  S
C521        H523   1.087       .  S
C521        C522   1.341   1_554  D
C522        H524   1.087       .  S
C525        H527   1.086       .  S
C525        C526   1.345   1_554  D
C526        H528   1.087       .  S
C529        H531   1.088       .  S
C529        C530   1.344       .  D
C530        H532   1.086       .  S
C533        H535   1.087       .  S
C533        C534   1.342       .  D
C534        H536   1.087       .  S
C537        H539   1.086       .  S
C537        C538   1.344       .  D
C538        H540   1.087       .  S
C541        H543   1.085       .  S
C541        C542   1.344       .  D
C542        H544   1.087       .  S
C545        H547   1.086       .  S
C545        C546   1.340       .  D
C546        H548   1.086       .  S
C549        H551   1.087       .  S
C549        C550   1.345       .  D
C550        H552   1.086       .  S
C553        H555   1.087       .  S
C553        C554   1.342       .  D
C554        H556   1.087       .  S
C557        H559   1.086       .  S
C557        C558   1.343       .  D
C558        H560   1.087       .  S
C561        H563   1.086       .  S
C561        C562   1.343       .  D
C562        H564   1.087       .  S
C565        H567   1.086       .  S
C565        C566   1.342       .  D
C566        H568   1.087       .  S
C569        H571   1.086       .  S
C569        C570   1.343       .  D
C570        H572   1.087       .  S
C573        H575   1.086       .  S
C573        C574   1.342       .  D
C574        H576   1.087       .  S
C577        H579   1.086       .  S
C577        C578   1.342       .  D
C578        H580   1.086       .  S
C581        H583   1.086   1_655  S
C581        C582   1.341   1_655  D
C582        H584   1.087       .  S
C585        H587   1.085       .  S
C585        C586   1.343       .  D
C586        H588   1.087       .  S
C589        H591   1.087       .  S
C589        C590   1.343       .  D
C590        H592   1.086       .  S
C593        H595   1.087       .  S
C593        C594   1.344       .  D
C594        H596   1.087       .  S
C597        H599   1.088       .  S
C597        C598   1.343       .  D
C598        H600   1.086       .  S
C601        H603   1.087       .  S
C601        C602   1.342       .  D
C602        H604   1.087       .  S
C605        H607   1.086       .  S
C605        C606   1.344       .  D
C606        H608   1.087       .  S
C609        H611   1.087       .  S
C609        C610   1.346       .  D
C610        H612   1.085       .  S
C613        H615   1.087       .  S
C613        C614   1.344       .  D
C614        H616   1.085       .  S
C617        H619   1.087       .  S
C617        C618   1.346       .  D
C618        H620   1.083       .  S
C621        H623   1.086       .  S
C621        C622   1.349       .  D
C622        H624   1.087       .  S
C625        C626   1.404       .  A
C625        C630   1.391       .  A
C625        H631   1.081       .  S
C626        C627   1.407       .  A
C627        C628   1.402       .  A
C627        H632   1.082       .  S
C628        C629   1.405       .  A
C628        H633   1.083       .  S
C629        C630   1.403       .  A
C630        H634   1.081       .  S
C635        H637   1.087       .  S
C635        C636   1.343       .  D
C636        H638   1.085       .  S
C639        H641   1.087       .  S
C639        C640   1.348       .  D
C640        H642   1.086       .  S
C643        C644   1.401       .  A
C643        C648   1.397       .  A
C643        H649   1.083       .  S
C644        C645   1.403       .  A
C645        C646   1.394       .  A
C645        H650   1.084       .  S
C646        C647   1.406       .  A
C646        H651   1.082       .  S
C647        C648   1.404       .  A
C648        H652   1.082       .  S
C653        C654   1.404       .  A
C653        C658   1.402       .  A
C653        H659   1.083       .  S
C654        C655   1.403       .  A
C655        C656   1.395       .  A
C655        H660   1.083       .  S
C656        C657   1.409       .  A
C656        H661   1.082       .  S
C657        C658   1.407       .  A
C658        H662   1.082       .  S
C663        H665   1.086       .  S
C663        C664   1.348       .  D
C664        H666   1.087       .  S
C667        H669   1.084       .  S
C667        C668   1.343       .  D
C668        H670   1.087       .  S
C671        C672   1.406       .  A
C671        C676   1.405       .  A
C671        H677   1.080       .  S
C672        C673   1.408       .  A
C673        C674   1.390       .  A
C673        H678   1.082       .  S
C674        C675   1.403       .  A
C674        H679   1.080       .  S
C675        C676   1.408       .  A
C676        H680   1.084       .  S
C681        H683   1.089       .  S
C681        C682   1.341       .  D
C682        H684   1.087       .  S
C685        H687   1.088       .  S
C685        C686   1.344       .  D
C686        H688   1.083       .  S
C689        C690   1.404       .  A
C689        C694   1.394       .  A
C689        H695   1.076       .  S
C690        C691   1.402       .  A
C691        C692   1.398       .  A
C691        H696   1.084       .  S
C692        C693   1.408       .  A
C692        H697   1.082       .  S
C693        C694   1.404       .  A
C694        H698   1.084       .  S
C699        C700   1.405       .  A
C699        C704   1.390       .  A
C699        H705   1.082       .  S
C700        C701   1.409       .  A
C701        C702   1.407       .  A
C701        H706   1.082       .  S
C702        C703   1.403       .  A
C702        H707   1.083       .  S
C703        C704   1.404       .  A
C704        H708   1.083       .  S
C709        H711   1.087       .  S
C709        C710   1.342       .  D
C710        H712   1.085       .  S
C713        H715   1.086       .  S
C713        C714   1.351       .  D
C714        H716   1.088       .  S
C717        H719   1.087       .  S
C717        C718   1.343       .  D
C718        H720   1.085       .  S
C721        H723   1.086       .  S
C721        C722   1.351       .  D
C722        H724   1.087       .  S
C725        C726   1.405       .  A
C725        C730   1.391       .  A
C725        H731   1.083       .  S
C726        C727   1.403       .  A
C727        C728   1.400       .  A
C727        H732   1.082       .  S
C728        C729   1.405       .  A
C728        H733   1.083       .  S
C729        C730   1.404       .  A
C730        H734   1.083       .  S
C735        H737   1.082       .  S
C735        C736   1.342       .  D
C736        H738   1.087       .  S
C739        H741   1.088       .  S
C739        C740   1.342       .  D
C740        H742   1.086       .  S
C743        H745   1.087       .  S
C743        C744   1.341       .  D
C744        H746   1.085       .  S
C747        H749   1.086       .  S
C747        C748   1.346       .  D
C748        H750   1.087       .  S
C751        C752   1.405       .  A
C751        C756   1.394       .  A
C751        H757   1.080       .  S
C752        C753   1.410       .  A
C753        C754   1.402       .  A
C753        H758   1.082       .  S
C754        C755   1.405       .  A
C754        H759   1.083       .  S
C755        C756   1.405       .  A
C756        H760   1.080       .  S
C761        H763   1.086       .  S
C761        C762   1.344       .  D
C762        H764   1.085       .  S
C765        H767   1.087       .  S
C765        C766   1.350       .  D
C766        H768   1.086       .  S
C769        C770   1.403       .  A
C769        C774   1.390       .  A
C769        H775   1.081       .  S
C770        C771   1.407       .  A
C771        C772   1.405       .  A
C771        H776   1.083       .  S
C772        C773   1.408       .  A
C772        H777   1.083       .  S
C773        C774   1.404       .  A
C774        H778   1.081       .  S
C779        C780   1.407       .  A
C779        C784   1.403       .  A
C779        H785   1.082       .  S
C780        C781   1.405       .  A
C781        C782   1.393       .  A
C781        H786   1.081       .  S
C782        C783   1.406       .  A
C782        H787   1.082       .  S
C783        C784   1.405       .  A
C784        H788   1.082       .  S
C789        H791   1.087       .  S
C789        C790   1.343       .  D
C790        H792   1.084       .  S
C793        H795   1.086       .  S
C793        C794   1.349       .  D
C794        H796   1.088       .  S
C797        C798   1.401       .  A
C797        C802   1.384       .  A
C797        H803   1.083       .  S
C798        C799   1.407       .  A
C799        C800   1.409       .  A
C799        H804   1.083       .  S
C800        C801   1.406       .  A
C800        H805   1.083       .  S
C801        C802   1.405       .  A
C802        H806   1.083       .  S
C807        C808   1.405       .  A
C807        C812   1.407       .  A
C807        H813   1.084       .  S
C808        C809   1.408       .  A
C809        C810   1.390       .  A
C809        H814   1.083       .  S
C810        C811   1.403       .  A
C810        H815   1.084       .  S
C811        C812   1.409       .  A
C812        H816   1.083       .  S
