geometry optimzed in LAMMPS
_audit_creation_date              2020-11-30 
_audit_creation_method            'lammps2cif' 
_symmetry_space_group_name_H-M    'P1' 
_symmetry_Int_Tables_number       1 
_symmetry_cell_setting            triclinic 
loop_ 
_symmetry_equiv_pos_as_xyz 
  x,y,z 
_cell_length_a                    29.63409925 
_cell_length_b                    29.562571915223707 
_cell_length_c                    46.105574898904486 
_cell_angle_alpha                 90.17038201675769 
_cell_angle_beta                  89.91026995125792 
_cell_angle_gamma                 90.53379627134133 
loop_ 
_atom_site_label 
_atom_site_type_symbol 
_atom_site_fract_x 
_atom_site_fract_y 
_atom_site_fract_z 
_atom_site_charge 
N1          N  0.50952928  0.99991270  0.04434168    -0.36400
N2          N  0.50498662  0.06994581  0.50066221    -0.57000
N3          N  0.50594742  0.00105697  0.45629697    -0.36400
N4          N  0.50815478  0.93104093  0.49966586    -0.57000
C5          C  0.49643565  0.03587320  0.06041087     0.27200
C6          C  0.50029260  0.96225317  0.05993538     0.27200
C7          C  0.49441001  0.03803894  0.44095315     0.27200
C8          C  0.49356956  0.96443959  0.44048272     0.27200
C9          C  0.51376224  0.09543201  0.02433579     0.35800
C10         C  0.51489083  0.09591615  0.47744147     0.35800
C11         C  0.51947721  0.90527412  0.02256771     0.35800
C12         C  0.51596342  0.90591663  0.47573308     0.35800
C13         C  0.47846358  0.02081361  0.08650194    -0.21700
C14         C  0.48116550  0.97430581  0.08626857    -0.21700
C15         C  0.47410880  0.02489840  0.41516681    -0.21700
C16         C  0.47345080  0.97831306  0.41490384    -0.21500
C17         C  0.52949954  0.13783892  0.01617155    -0.22800
C18         C  0.53029816  0.13811456  0.48634558    -0.22800
C19         C  0.53469007  0.86349361  0.01319568    -0.22800
C20         C  0.53241953  0.86389600  0.48339919    -0.22800
C21         C  0.50381638  0.08182503  0.05295914    -0.18100
C22         C  0.51176737  0.91769123  0.05168281    -0.18100
C23         C  0.50400493  0.91921629  0.44744191    -0.18100
C24         C  0.50606021  0.08295303  0.44853688    -0.18100
H25         H  0.46545952  0.04123287  0.10409534     0.14800
H26         H  0.47064165  0.95193658  0.10360013     0.14800
H27         H  0.46199589  0.04662033  0.39805961     0.14800
H28         H  0.46071404  0.95708450  0.39753028     0.14800
H29         H  0.53871618  0.16581952  0.03021754     0.13100
H30         H  0.54013905  0.16637920  0.47279926     0.13100
H31         H  0.54525894  0.83536322  0.02644903     0.13100
H32         H  0.54088442  0.83616221  0.46907497     0.13100
H33         H  0.52875392  0.00118801  0.02544849     0.26300
H34         H  0.52674553  0.00096058  0.47446331     0.26300
C35         C  0.49050484  0.29226961  0.22444497     0.03300
C36         C  0.49128946  0.26897618  0.25091390    -0.12800
C37         C  0.49384308  0.29239211  0.27731946     0.00800
C38         C  0.49697234  0.33980189  0.27730832    -0.11400
C39         C  0.49680052  0.36392343  0.25100934     0.03300
C40         C  0.49345952  0.33975002  0.22469929    -0.10800
H41         H  0.49087892  0.23232285  0.25106422     0.08900
H42         H  0.49915815  0.35770701  0.29780634     0.06400
H43         H  0.49270124  0.35783607  0.20431200     0.06300
C44         C  0.50231694  0.70781405  0.22207391     0.03300
C45         C  0.50150891  0.66042152  0.22262179    -0.12800
C46         C  0.49935344  0.63708752  0.24917824     0.00800
C47         C  0.49775048  0.66212384  0.27524102    -0.11400
C48         C  0.49870077  0.70972179  0.27488894     0.03300
C49         C  0.50205994  0.73206397  0.24817816    -0.10800
H50         H  0.50201970  0.64192505  0.20230104     0.08900
H51         H  0.49524409  0.64468857  0.29581680     0.06400
H52         H  0.50442413  0.76865790  0.24758031     0.06300
N53         N  0.00066597  0.51451605  0.04398096    -0.36400
N54         N  0.93016572  0.51138108  0.49981294    -0.57000
N55         N  0.99898389  0.50413254  0.45516900    -0.36400
N56         N  0.06912638  0.50302799  0.49925788    -0.57000
C57         C  0.96355980  0.50966967  0.06093147     0.27200
C58         C  0.03716612  0.50601746  0.06069284     0.27200
C59         C  0.96125945  0.49552182  0.43951528     0.27200
C60         C  0.03449912  0.48955019  0.43931437     0.27200
C61         C  0.90461450  0.52173370  0.02315578     0.35800
C62         C  0.90391727  0.51768768  0.47624259     0.35800
C63         C  0.09660026  0.51039514  0.02220561     0.35800
C64         C  0.09545986  0.50468042  0.47530219     0.35800
C65         C  0.97669830  0.49877952  0.08888289    -0.21700
C66         C  0.02297114  0.49704374  0.08883091    -0.21700
C67         C  0.97293740  0.47553664  0.41335019    -0.21700
C68         C  0.01910488  0.47162571  0.41326219    -0.21700
C69         C  0.86184190  0.53443258  0.01439191    -0.22800
C70         C  0.86145395  0.53203486  0.48463508    -0.22800
C71         C  0.14072014  0.51628307  0.01274041    -0.22800
C72         C  0.13990235  0.51315206  0.48304464    -0.22800
C73         C  0.91822695  0.51664317  0.05233219    -0.18100
C74         C  0.08301656  0.50781871  0.05161567    -0.18100
C75         C  0.08061089  0.49452467  0.44684046    -0.18100
C76         C  0.91677585  0.50740110  0.44746286    -0.18100
H77         H  0.95526275  0.49312158  0.10757218     0.14800
H78         H  0.04358234  0.49017427  0.10760826     0.14800
H79         H  0.95051682  0.46500032  0.39604075     0.14800
H80         H  0.03909636  0.45753855  0.39583133     0.14800
H81         H  0.83372618  0.54397189  0.02804517     0.13100
H82         H  0.83294478  0.53924158  0.47080849     0.13100
H83         H  0.17064963  0.52146854  0.02576860     0.13100
H84         H  0.16895525  0.51557867  0.46886722     0.13100
H85         H  0.00128043  0.52708558  0.02299002     0.26300
H86         H  0.00075913  0.52370966  0.47389279     0.26300
C87         C  0.29151282  0.49000866  0.22372626     0.03300
C88         C  0.33867446  0.49577132  0.22404602    -0.12800
C89         C  0.36305768  0.49290505  0.25017863     0.00800
C90         C  0.33953320  0.48460202  0.27621251    -0.11400
C91         C  0.29234948  0.47922150  0.27636469     0.03300
C92         C  0.26892094  0.48193316  0.25002122    -0.10800
H93         H  0.35628725  0.50337952  0.20402933     0.08900
H94         H  0.35791307  0.48212350  0.29642466     0.06400
H95         H  0.23251500  0.47877624  0.25004839     0.06300
C96         C  0.70683645  0.50281607  0.22309547     0.03300
C97         C  0.65935887  0.50151879  0.22346519    -0.12800
C98         C  0.63533728  0.50359460  0.24987646     0.00800
C99         C  0.65954490  0.50642258  0.27609386    -0.11400
C100        C  0.70684071  0.50769710  0.27594984     0.03300
C101        C  0.73001606  0.50702823  0.24950437    -0.10800
H102        H  0.64118398  0.49824907  0.20319649     0.08900
H103        H  0.64182309  0.50694189  0.29666220     0.06400
H104        H  0.76650212  0.50977517  0.24964961     0.06300
O105        O  0.49882316  0.56481726  0.22561481    -0.74200
O106        O  0.49926744  0.43517218  0.22658732    -0.74300
O107        O  0.43443380  0.49863730  0.22607180    -0.74300
O108        O  0.56376445  0.50102157  0.22596904    -0.74400
O109        O  0.56385723  0.50247819  0.27427439    -0.74300
O110        O  0.43434050  0.49920337  0.27438837    -0.74300
O111        O  0.49961891  0.43606671  0.27489746    -0.74300
O112        O  0.49839832  0.56591320  0.27392191    -0.74300
Ni113      Ni  0.49910197  0.49993342  0.22436764     1.25400
Ni114      Ni  0.49908311  0.50102642  0.27609386     1.25400
C115        C  0.49872517  0.58685920  0.24960828     0.87900
C116        C  0.49889448  0.41413118  0.25086381     0.87900
C117        C  0.41299114  0.49748633  0.25022424     0.87900
C118        C  0.58524532  0.50226106  0.25006545     0.88100
C119        C  0.11873319  0.50443647  0.07426587    -0.19700
C120        C  0.12643817  0.46366680  0.08954029     0.36500
C121        C  0.15643573  0.46384297  0.11296559    -0.25700
C122        C  0.18088043  0.50289439  0.12050461     0.03000
C123        C  0.17674959  0.54225775  0.10354898     0.27800
C124        C  0.14454894  0.54308219  0.08117377    -0.24800
N125        N  0.10469836  0.42160230  0.08188523    -0.82200
H126        H  0.16082607  0.43313097  0.12539424     0.13600
C127        C  0.21021758  0.50175099  0.14642711     0.02900
N128        N  0.20648953  0.58032085  0.10823327    -0.80700
H129        H  0.13974183  0.57382665  0.06885935     0.18400
C130        C  0.25085450  0.47789837  0.14531390    -0.25600
C131        C  0.27790762  0.47307676  0.17018666     0.36400
C132        C  0.26484726  0.49430581  0.19642124    -0.19600
C133        C  0.22407553  0.51834163  0.19721383    -0.24900
C134        C  0.19596971  0.52099789  0.17283895     0.27800
H135        H  0.26072267  0.46184859  0.12514470     0.13600
N136        N  0.31755216  0.44546211  0.16908648    -0.82100
H137        H  0.21355587  0.53457235  0.21716611     0.18400
N138        N  0.15186500  0.54064179  0.17532619    -0.80700
H139        H  0.32220514  0.43225601  0.14824194     0.34100
H140        H  0.31206411  0.41783571  0.18279926     0.38600
H141        H  0.14570224  0.55100832  0.19666138     0.34000
H142        H  0.15101748  0.56978862  0.16266172     0.30700
H143        H  0.20010308  0.60577714  0.09313101     0.34000
H144        H  0.19980805  0.59410743  0.12862317     0.30700
H145        H  0.08505501  0.42449302  0.06323560     0.38600
H146        H  0.08308286  0.41256412  0.09888898     0.34100
C147        C  0.11493636  0.48897452  0.42338077    -0.19700
C148        C  0.14657356  0.45320346  0.42308389     0.36500
C149        C  0.17835910  0.45084073  0.40056387    -0.25700
C150        C  0.17842919  0.48229882  0.37790919     0.03000
C151        C  0.14597194  0.51682644  0.37751127     0.27800
C152        C  0.11507901  0.52025410  0.40051176    -0.24800
N153        N  0.14657517  0.41795376  0.44450471    -0.82200
H154        H  0.20260673  0.42361711  0.40038527     0.13600
C155        C  0.21108107  0.47751104  0.35382877     0.02900
N156        N  0.14346166  0.54717105  0.35324384    -0.80700
H157        H  0.09043511  0.54711814  0.40046911     0.18400
C158        C  0.20122514  0.44730478  0.33122676    -0.25600
C159        C  0.22909998  0.44480395  0.30659033     0.36400
C160        C  0.26672302  0.47447264  0.30410065    -0.19600
C161        C  0.27792385  0.50266573  0.32770636    -0.24900
C162        C  0.25077746  0.50400559  0.35272599     0.27800
H163        H  0.17127215  0.42610743  0.33267272     0.13600
N164        N  0.21920190  0.41247237  0.28406724    -0.82100
H165        H  0.30698144  0.52503705  0.32624377     0.18400
N166        N  0.26348481  0.53186414  0.37705832    -0.80700
H167        H  0.19042174  0.39339696  0.28924155     0.34100
H168        H  0.24610467  0.38989626  0.28307106     0.38600
H169        H  0.29420631  0.54836127  0.37301662     0.34000
H170        H  0.23936304  0.55711238  0.37952678     0.30700
H171        H  0.11665613  0.56957864  0.35587336     0.34000
H172        H  0.17286437  0.56689574  0.35291871     0.30700
H173        H  0.11957159  0.42065430  0.45891412     0.38600
H174        H  0.17625648  0.42133235  0.45657649     0.34100
C175        C  0.88260357  0.51560730  0.07516873    -0.19700
C176        C  0.85277825  0.47843033  0.07731752     0.36500
C177        C  0.82091577  0.47676340  0.09979721    -0.25700
C178        C  0.81873241  0.51147152  0.12046823     0.03000
C179        C  0.84892011  0.54861161  0.11869341     0.27800
C180        C  0.88034966  0.55054459  0.09579080    -0.24800
N181        N  0.85575865  0.44170166  0.05711144    -0.82200
H182        H  0.79845774  0.44775067  0.10153546     0.13600
C183        C  0.78740772  0.50647859  0.14527002     0.02900
N184        N  0.84897094  0.58293768  0.14086740    -0.80700
H185        H  0.90392171  0.57869598  0.09435840     0.18400
C186        C  0.79999789  0.47882360  0.16839843    -0.25600
C187        C  0.77252209  0.47454001  0.19308131     0.36400
C188        C  0.73275777  0.50054390  0.19535206    -0.19600
C189        C  0.71885311  0.52599735  0.17126012    -0.24900
C190        C  0.74540067  0.52836444  0.14594095     0.27800
H191        H  0.83144701  0.46048769  0.16712083     0.13600
N192        N  0.78465405  0.44361633  0.21573225    -0.82100
H193        H  0.68779680  0.54494772  0.17238993     0.18400
N194        N  0.72947482  0.55189317  0.12075178    -0.80700
H195        H  0.81467345  0.42704905  0.21063471     0.34100
H196        H  0.75942115  0.41871680  0.21680168     0.38600
H197        H  0.69731049  0.56492999  0.12452605     0.34000
H198        H  0.75081747  0.57956036  0.11701360     0.30700
H199        H  0.87422281  0.60705357  0.13681956     0.34000
H200        H  0.81832383  0.59998890  0.13982101     0.30700
H201        H  0.86204027  0.41215675  0.06878309     0.38600
H202        H  0.82444294  0.43800072  0.04692907     0.34100
C203        C  0.73293790  0.50738686  0.30329931    -0.19700
C204        C  0.73054614  0.54317490  0.32350794     0.36500
C205        C  0.75807903  0.54229868  0.34836053    -0.25700
C206        C  0.78831936  0.50673203  0.35299847     0.03000
C207        C  0.79062356  0.47100673  0.33275074     0.27800
C208        C  0.76266033  0.47155371  0.30821811    -0.24800
N209        N  0.70124034  0.58074159  0.31826751    -0.82200
H210        H  0.75677080  0.56987463  0.36386677     0.13600
C211        C  0.81955252  0.50851706  0.37810671     0.02900
N212        N  0.82222369  0.43497018  0.33682672    -0.80700
H213        H  0.76460624  0.44431077  0.29248960     0.18400
C214        C  0.81726172  0.47466422  0.39937142    -0.25600
C215        C  0.84850091  0.47374031  0.42230879     0.36400
C216        C  0.88188356  0.50791341  0.42426281    -0.19600
C217        C  0.88392250  0.54191280  0.40314683    -0.24900
C218        C  0.85334516  0.54230910  0.37989630     0.27800
H219        H  0.79156516  0.44847128  0.39769476     0.13600
N220        N  0.84702721  0.43798514  0.44335519    -0.82100
H221        H  0.91012219  0.56764020  0.40455343     0.18400
N222        N  0.85708865  0.57618598  0.35769040    -0.80700
H223        H  0.82042761  0.41557369  0.43886814     0.34100
H224        H  0.87677850  0.41951353  0.44121784     0.38600
H225        H  0.88372472  0.59853154  0.36221035     0.34000
H226        H  0.86532949  0.55975250  0.33829893     0.30700
H227        H  0.81962030  0.41131768  0.31998819     0.34000
H228        H  0.85469688  0.44896668  0.33554458     0.30700
H229        H  0.71279551  0.59716487  0.29958477     0.38600
H230        H  0.70358617  0.60428710  0.33518111     0.34100
C231        C  0.50107320  0.11694572  0.07615567    -0.19700
C232        C  0.46921387  0.15218063  0.07493031     0.36500
C233        C  0.46780326  0.18442312  0.09742022    -0.25700
C234        C  0.49691217  0.18138425  0.12124289     0.03000
C235        C  0.52830840  0.14594957  0.12266324     0.27800
C236        C  0.53042491  0.11437682  0.09991912    -0.24800
N237        N  0.43811629  0.15461028  0.05109531    -0.82200
H238        H  0.44331487  0.21139474  0.09675641     0.13600
C239        C  0.49217457  0.21331590  0.14576214     0.02900
N240        N  0.55674770  0.14128477  0.14770161    -0.80700
H241        H  0.55464633  0.08718240  0.10085101     0.18400
C242        C  0.46075630  0.20330871  0.16756103    -0.25600
C243        C  0.45824716  0.22991026  0.19271895     0.36400
C244        C  0.48846238  0.26667140  0.19658544    -0.19600
C245        C  0.51835177  0.27800309  0.17393707    -0.24900
C246        C  0.52021964  0.25184810  0.14840380     0.27800
H247        H  0.43849489  0.17422792  0.16521171     0.13600
N248        N  0.42462776  0.21974136  0.21414989    -0.82100
H249        H  0.54124621  0.30650731  0.17650519     0.18400
N250        N  0.55018097  0.26433575  0.12514384    -0.80700
H251        H  0.42933555  0.18649068  0.22109650     0.34100
H252        H  0.39295634  0.22144359  0.20426009     0.38600
H253        H  0.56784392  0.29405407  0.13032000     0.34000
H254        H  0.57425725  0.23898577  0.12288734     0.30700
H255        H  0.57696110  0.11263846  0.14572445     0.34000
H256        H  0.57869668  0.16911869  0.14838223     0.30700
H257        H  0.41733266  0.12586829  0.05194311     0.38600
H258        H  0.41705763  0.18257477  0.05340932     0.34100
C259        C  0.50744788  0.11774419  0.42530728    -0.19700
C260        C  0.53912028  0.11596379  0.40225962     0.36500
C261        C  0.53642354  0.14751653  0.37975202    -0.25700
C262        C  0.50352721  0.18128671  0.37989521     0.03000
C263        C  0.47304917  0.18416739  0.40330318     0.27800
C264        C  0.47502231  0.15205719  0.42565813    -0.24800
N265        N  0.57472841  0.08326679  0.40111357    -0.82200
H266        H  0.56005877  0.14547250  0.36183832     0.13600
C267        C  0.50034707  0.21228665  0.35479368     0.02900
N268        N  0.44022388  0.21963327  0.40416504    -0.80700
H269        H  0.45093686  0.15344999  0.44334456     0.18400
C270        C  0.46171583  0.21045541  0.33728817    -0.25600
C271        C  0.45844369  0.23715000  0.31223780     0.36400
C272        C  0.49435661  0.26663604  0.30481709    -0.19600
C273        C  0.53246657  0.26938351  0.32276988    -0.24900
C274        C  0.53601801  0.24211948  0.34759498     0.27800
H275        H  0.43450526  0.18731113  0.34287237     0.13600
N276        N  0.41913116  0.23407010  0.29407396    -0.82100
H277        H  0.56006952  0.29184363  0.31686847     0.18400
N278        N  0.57586546  0.24405838  0.36530522    -0.80700
H279        H  0.39603530  0.21050086  0.30240889     0.34100
H280        H  0.40325451  0.26549264  0.29461519     0.38600
H281        H  0.59912813  0.26738622  0.35688969     0.34000
H282        H  0.56638862  0.25611228  0.38574438     0.30700
H283        H  0.42028846  0.21695556  0.42282366     0.34000
H284        H  0.45779263  0.25037757  0.40577513     0.30700
H285        H  0.57603882  0.06357455  0.41981953     0.38600
H286        H  0.56804498  0.06146674  0.38371563     0.34100
C287        C  0.51332171  0.88210654  0.07435700    -0.19700
C288        C  0.54765123  0.88125394  0.09569410     0.36500
C289        C  0.54575398  0.84840750  0.11750241    -0.25700
C290        C  0.51071327  0.81625566  0.11842456     0.03000
C291        C  0.47732167  0.81612925  0.09670269     0.27800
C292        C  0.47884341  0.84923445  0.07492656    -0.24800
N293        N  0.58500144  0.91266795  0.09582041    -0.82200
H294        H  0.57142872  0.84849556  0.13422432     0.13600
C295        C  0.50752745  0.78527090  0.14352856     0.02900
N296        N  0.44185712  0.78262682  0.09708944    -0.80700
H297        H  0.45276699  0.84984796  0.05848002     0.18400
C298        C  0.47084278  0.78956660  0.16251793    -0.25600
C299        C  0.46796943  0.76362578  0.18787509     0.36400
C300        C  0.50248836  0.73267233  0.19428234    -0.19600
C301        C  0.53847948  0.72720973  0.17480859    -0.24900
C302        C  0.54146821  0.75348455  0.14946700     0.27800
H303        H  0.44491541  0.81410080  0.15784038     0.13600
N304        N  0.43047648  0.76894733  0.20738968    -0.82100
H305        H  0.56487296  0.70336317  0.17984063     0.18400
N306        N  0.57895902  0.74852262  0.12993857    -0.80700
H307        H  0.40825005  0.79336494  0.19965289     0.34100
H308        H  0.41259570  0.73830212  0.20778043     0.38600
H309        H  0.60110674  0.72393075  0.13754485     0.34000
H310        H  0.56623376  0.73658456  0.11018232     0.30700
H311        H  0.41986878  0.78731822  0.07966499     0.34000
H312        H  0.45675984  0.75104142  0.09403740     0.30700
H313        H  0.58468036  0.93402493  0.07785664     0.38600
H314        H  0.58183350  0.93309288  0.11424782     0.34100
C315        C  0.49663993  0.73651149  0.30226979    -0.19700
C316        C  0.46813895  0.77450006  0.30486745     0.36500
C317        C  0.47032448  0.80151375  0.32993237    -0.25700
C318        C  0.49929608  0.79069665  0.35276189     0.03000
C319        C  0.52572688  0.75142082  0.35111776     0.27800
C320        C  0.52444012  0.72486247  0.32573921    -0.24800
N321        N  0.43691387  0.78535627  0.28213401    -0.82200
H322        H  0.44947823  0.83133506  0.33168870     0.13600
C323        C  0.50219724  0.82182861  0.37784113     0.02900
N324        N  0.55324267  0.73843162  0.37530937    -0.80700
H325        H  0.54596109  0.69555285  0.32401878     0.18400
C326        C  0.47028186  0.81827497  0.40018577    -0.25600
C327        C  0.46971926  0.84947103  0.42314741     0.36400
C328        C  0.50253594  0.88467564  0.42393150    -0.19600
C329        C  0.53454601  0.88796182  0.40154822    -0.24900
C330        C  0.53448762  0.85708419  0.37835720     0.27800
H331        H  0.44485882  0.79170642  0.39935718     0.13600
N332        N  0.43443039  0.84527377  0.44444598    -0.82100
H333        H  0.55931884  0.91516086  0.40206204     0.18400
N334        N  0.56600492  0.86226103  0.35482360    -0.80700
H335        H  0.44000605  0.81551391  0.45604236     0.34100
H336        H  0.43488867  0.87186771  0.45935260     0.38600
H337        H  0.58666315  0.89066357  0.35815412     0.34000
H338        H  0.58724961  0.83426776  0.35483600     0.30700
H339        H  0.56990560  0.70818961  0.37079986     0.34000
H340        H  0.57827332  0.76314247  0.37816765     0.30700
H341        H  0.41363217  0.75867723  0.28057456     0.38600
H342        H  0.41855333  0.81426941  0.28743612     0.34100
N343        N  0.50952931  0.99991271  0.54434167    -0.36400
N344        N  0.50498640  0.06994582  0.00066219    -0.57000
N345        N  0.50594729  0.00105697  0.95629698    -0.36400
N346        N  0.50815470  0.93104094  0.99966587    -0.57000
C347        C  0.49643575  0.03587321  0.56041086     0.27200
C348        C  0.50029261  0.96225319  0.55993534     0.27200
C349        C  0.49440988  0.03803892  0.94095314     0.27200
C350        C  0.49356954  0.96443957  0.94048272     0.27200
C351        C  0.51376248  0.09543199  0.52433580     0.35800
C352        C  0.51489066  0.09591615  0.97744146     0.35800
C353        C  0.51947719  0.90527408  0.52256769     0.35800
C354        C  0.51596332  0.90591663  0.97573310     0.35800
C355        C  0.47846366  0.02081364  0.58650195    -0.21700
C356        C  0.48116547  0.97430581  0.58626854    -0.21700
C357        C  0.47410881  0.02489833  0.91516677    -0.21700
C358        C  0.47345086  0.97831299  0.91490379    -0.21500
C359        C  0.52949976  0.13783890  0.51617157    -0.22800
C360        C  0.53029805  0.13811455  0.98634556    -0.22800
C361        C  0.53469003  0.86349353  0.51319567    -0.22800
C362        C  0.53241947  0.86389606  0.98339922    -0.22800
C363        C  0.50381656  0.08182504  0.55295915    -0.18100
C364        C  0.51176739  0.91769124  0.55168279    -0.18100
C365        C  0.50400494  0.91921628  0.94744191    -0.18100
C366        C  0.50606000  0.08295304  0.94853687    -0.18100
H367        H  0.46545970  0.04123293  0.60409536     0.14800
H368        H  0.47064149  0.95193652  0.60360005     0.14800
H369        H  0.46199590  0.04662025  0.89805957     0.14800
H370        H  0.46071418  0.95708440  0.89753022     0.14800
H371        H  0.53871643  0.16581949  0.53021756     0.13100
H372        H  0.54013897  0.16637920  0.97279924     0.13100
H373        H  0.54525882  0.83536315  0.52644907     0.13100
H374        H  0.54088437  0.83616226  0.96907503     0.13100
H375        H  0.52875403  0.00118802  0.52544844     0.26300
H376        H  0.52674534  0.00096062  0.97446335     0.26300
C377        C  0.49050475  0.29226964  0.72444496     0.03300
C378        C  0.49128943  0.26897624  0.75091390    -0.12800
C379        C  0.49384311  0.29239218  0.77731945     0.00800
C380        C  0.49697230  0.33980194  0.77730826    -0.11400
C381        C  0.49680043  0.36392346  0.75100929     0.03300
C382        C  0.49345943  0.33975004  0.72469925    -0.10800
H383        H  0.49087883  0.23232292  0.75106424     0.08900
H384        H  0.49915804  0.35770709  0.79780626     0.06400
H385        H  0.49270113  0.35783606  0.70431195     0.06300
C386        C  0.50231696  0.70781406  0.72207389     0.03300
C387        C  0.50150904  0.66042154  0.72262177    -0.12800
C388        C  0.49935356  0.63708752  0.74917822     0.00800
C389        C  0.49775055  0.66212380  0.77524101    -0.11400
C390        C  0.49870095  0.70972176  0.77488893     0.03300
C391        C  0.50206010  0.73206395  0.74817815    -0.10800
H392        H  0.50201986  0.64192510  0.70230101     0.08900
H393        H  0.49524404  0.64468850  0.79581677     0.06400
H394        H  0.50442433  0.76865788  0.74758032     0.06300
N395        N  0.00066596  0.51451599  0.54398097    -0.36400
N396        N  0.93016576  0.51138107  0.99981294    -0.57000
N397        N  0.99898395  0.50413250  0.95516904    -0.36400
N398        N  0.06912632  0.50302796  0.99925788    -0.57000
C399        C  0.96355978  0.50966964  0.56093150     0.27200
C400        C  0.03716611  0.50601742  0.56069287     0.27200
C401        C  0.96125951  0.49552181  0.93951531     0.27200
C402        C  0.03449916  0.48955016  0.93931440     0.27200
C403        C  0.90461448  0.52173367  0.52315579     0.35800
C404        C  0.90391732  0.51768767  0.97624259     0.35800
C405        C  0.09660032  0.51039511  0.52220563     0.35800
C406        C  0.09545982  0.50468039  0.97530220     0.35800
C407        C  0.97669826  0.49877951  0.58888292    -0.21700
C408        C  0.02297112  0.49704372  0.58883094    -0.21700
C409        C  0.97293750  0.47553665  0.91335024    -0.21700
C410        C  0.01910495  0.47162570  0.91326224    -0.21700
C411        C  0.86184187  0.53443256  0.51439191    -0.22800
C412        C  0.86145402  0.53203484  0.98463508    -0.22800
C413        C  0.14072023  0.51628305  0.51274044    -0.22800
C414        C  0.13990229  0.51315204  0.98304463    -0.22800
C415        C  0.91822692  0.51664314  0.55233220    -0.18100
C416        C  0.08301657  0.50781867  0.55161569    -0.18100
C417        C  0.08061090  0.49452467  0.94684046    -0.18100
C418        C  0.91677591  0.50740111  0.94746287    -0.18100
H419        H  0.95526270  0.49312156  0.60757221     0.14800
H420        H  0.04358233  0.49017424  0.60760829     0.14800
H421        H  0.95051699  0.46500037  0.89604077     0.14800
H422        H  0.03909644  0.45753858  0.89583138     0.14800
H423        H  0.83372617  0.54397185  0.52804517     0.13100
H424        H  0.83294487  0.53924152  0.97080847     0.13100
H425        H  0.17064973  0.52146851  0.52576863     0.13100
H426        H  0.16895520  0.51557864  0.96886722     0.13100
H427        H  0.00128043  0.52708535  0.52299003     0.26300
H428        H  0.00075920  0.52370969  0.97389280     0.26300
C429        C  0.29151279  0.49000861  0.72372629     0.03300
C430        C  0.33867442  0.49577127  0.72404604    -0.12800
C431        C  0.36305768  0.49290502  0.75017864     0.00800
C432        C  0.33953322  0.48460200  0.77621251    -0.11400
C433        C  0.29234951  0.47922147  0.77636470     0.03300
C434        C  0.26892094  0.48193314  0.75002125    -0.10800
H435        H  0.35628717  0.50337945  0.70402935     0.08900
H436        H  0.35791310  0.48212350  0.79642464     0.06400
H437        H  0.23251500  0.47877623  0.75004843     0.06300
C438        C  0.70683643  0.50281603  0.72309543     0.03300
C439        C  0.65935887  0.50151876  0.72346515    -0.12800
C440        C  0.63533733  0.50359457  0.74987643     0.00800
C441        C  0.65954500  0.50642260  0.77609381    -0.11400
C442        C  0.70684080  0.50769723  0.77594976     0.03300
C443        C  0.73001608  0.50702828  0.74950429    -0.10800
H444        H  0.64118397  0.49824903  0.70319646     0.08900
H445        H  0.64182327  0.50694186  0.79666217     0.06400
H446        H  0.76650214  0.50977520  0.74964950     0.06300
O447        O  0.49882308  0.56481727  0.72561481    -0.74200
O448        O  0.49926739  0.43517224  0.72658733    -0.74300
O449        O  0.43443380  0.49863735  0.72607179    -0.74300
O450        O  0.56376444  0.50102163  0.72596903    -0.74400
O451        O  0.56385731  0.50247813  0.77427438    -0.74300
O452        O  0.43434055  0.49920338  0.77438836    -0.74300
O453        O  0.49961891  0.43606670  0.77489746    -0.74300
O454        O  0.49839850  0.56591321  0.77392191    -0.74300
Ni455      Ni  0.49910194  0.49993346  0.72436765     1.25400
Ni456      Ni  0.49908318  0.50102641  0.77609387     1.25400
C457        C  0.49872525  0.58685920  0.74960828     0.87900
C458        C  0.49889441  0.41413121  0.75086380     0.87900
C459        C  0.41299116  0.49748633  0.75022424     0.87900
C460        C  0.58524536  0.50226104  0.75006543     0.88100
C461        C  0.11873320  0.50443645  0.57426591    -0.19700
C462        C  0.12643822  0.46366677  0.58954032     0.36500
C463        C  0.15643577  0.46384296  0.61296564    -0.25700
C464        C  0.18088048  0.50289439  0.62050464     0.03000
C465        C  0.17674963  0.54225774  0.60354900     0.27800
C466        C  0.14454891  0.54308218  0.58117383    -0.24800
N467        N  0.10469839  0.42160228  0.58188527    -0.82200
H468        H  0.16082608  0.43313101  0.62539434     0.13600
C469        C  0.21021764  0.50175101  0.64642712     0.02900
N470        N  0.20648966  0.58032076  0.60823326    -0.80700
H471        H  0.13974177  0.57382666  0.56885943     0.18400
C472        C  0.25085459  0.47789844  0.64531388    -0.25600
C473        C  0.27790765  0.47307674  0.67018666     0.36400
C474        C  0.26484724  0.49430572  0.69642126    -0.19600
C475        C  0.22407552  0.51834156  0.69721385    -0.24900
C476        C  0.19596974  0.52099786  0.67283897     0.27800
H477        H  0.26072281  0.46184878  0.62514465     0.13600
N478        N  0.31755226  0.44546220  0.66908640    -0.82100
H479        H  0.21355585  0.53457230  0.71716613     0.18400
N480        N  0.15186506  0.54064183  0.67532621    -0.80700
H481        H  0.32220511  0.43225608  0.64824193     0.34100
H482        H  0.31206437  0.41783574  0.68279925     0.38600
H483        H  0.14570228  0.55100832  0.69666141     0.34000
H484        H  0.15101765  0.56978871  0.66266179     0.30700
H485        H  0.20010318  0.60577711  0.59313098     0.34000
H486        H  0.19980836  0.59410730  0.62862314     0.30700
H487        H  0.08505510  0.42449297  0.56323564     0.38600
H488        H  0.08308279  0.41256424  0.59888903     0.34100
C489        C  0.11493638  0.48897451  0.92338077    -0.19700
C490        C  0.14657353  0.45320343  0.92308390     0.36500
C491        C  0.17835911  0.45084070  0.90056389    -0.25700
C492        C  0.17842929  0.48229884  0.87790922     0.03000
C493        C  0.14597200  0.51682641  0.87751125     0.27800
C494        C  0.11507906  0.52025406  0.90051173    -0.24800
N495        N  0.14657508  0.41795373  0.94450471    -0.82200
H496        H  0.20260668  0.42361704  0.90038531     0.13600
C497        C  0.21108121  0.47751109  0.85382882     0.02900
N498        N  0.14346165  0.54717095  0.85324376    -0.80700
H499        H  0.09043518  0.54711810  0.90046905     0.18400
C500        C  0.20122529  0.44730481  0.83122682    -0.25600
C501        C  0.22910009  0.44480392  0.80659038     0.36400
C502        C  0.26672309  0.47447262  0.80410067    -0.19600
C503        C  0.27792388  0.50266586  0.82770634    -0.24900
C504        C  0.25077750  0.50400575  0.85272597     0.27800
H505        H  0.17127229  0.42610751  0.83267278     0.13600
N506        N  0.21920188  0.41247238  0.78406728    -0.82100
H507        H  0.30698141  0.52503723  0.82624370     0.18400
N508        N  0.26348494  0.53186433  0.87705828    -0.80700
H509        H  0.19042177  0.39339702  0.78924160     0.34100
H510        H  0.24610468  0.38989624  0.78307103     0.38600
H511        H  0.29420630  0.54836142  0.87301658     0.34000
H512        H  0.23936309  0.55711263  0.87952680     0.30700
H513        H  0.11665606  0.56957850  0.85587323     0.34000
H514        H  0.17286432  0.56689570  0.85291857     0.30700
H515        H  0.11957149  0.42065422  0.95891408     0.38600
H516        H  0.17625637  0.42133237  0.95657654     0.34100
C517        C  0.88260352  0.51560726  0.57516874    -0.19700
C518        C  0.85277820  0.47843032  0.57731754     0.36500
C519        C  0.82091575  0.47676344  0.59979727    -0.25700
C520        C  0.81873239  0.51147160  0.62046826     0.03000
C521        C  0.84892008  0.54861163  0.61869340     0.27800
C522        C  0.88034961  0.55054453  0.59579081    -0.24800
N523        N  0.85575857  0.44170164  0.55711148    -0.82200
H524        H  0.79845773  0.44775072  0.60153556     0.13600
C525        C  0.78740775  0.50647878  0.64527008     0.02900
N526        N  0.84897087  0.58293776  0.64086735    -0.80700
H527        H  0.90392167  0.57869589  0.59435841     0.18400
C528        C  0.79999795  0.47882382  0.66839850    -0.25600
C529        C  0.77252206  0.47454005  0.69308132     0.36400
C530        C  0.73275771  0.50054388  0.69535203    -0.19600
C531        C  0.71885307  0.52599743  0.67126014    -0.24900
C532        C  0.74540068  0.52836459  0.64594100     0.27800
H533        H  0.83144710  0.46048796  0.66712091     0.13600
N534        N  0.78465398  0.44361631  0.71573224    -0.82100
H535        H  0.68779672  0.54494773  0.67238994     0.18400
N536        N  0.72947475  0.55189315  0.62075179    -0.80700
H537        H  0.81467340  0.42704903  0.71063472     0.34100
H538        H  0.75942107  0.41871678  0.71680165     0.38600
H539        H  0.69731049  0.56492999  0.62452607     0.34000
H540        H  0.75081743  0.57956035  0.61701349     0.30700
H541        H  0.87422270  0.60705367  0.63681951     0.34000
H542        H  0.81832374  0.59998894  0.63982089     0.30700
H543        H  0.86204018  0.41215675  0.56878314     0.38600
H544        H  0.82444285  0.43800071  0.54692912     0.34100
C545        C  0.73293802  0.50738700  0.80329921    -0.19700
C546        C  0.73054620  0.54317501  0.82350787     0.36500
C547        C  0.75807914  0.54229883  0.84836045    -0.25700
C548        C  0.78831941  0.50673213  0.85299843     0.03000
C549        C  0.79062362  0.47100684  0.83275068     0.27800
C550        C  0.76266044  0.47155385  0.80821800    -0.24800
N551        N  0.70124031  0.58074164  0.81826743    -0.82200
H552        H  0.75677095  0.56987484  0.86386666     0.13600
C553        C  0.81955256  0.50851711  0.87810670     0.02900
N554        N  0.82222359  0.43497019  0.83682673    -0.80700
H555        H  0.76460631  0.44431092  0.79248947     0.18400
C556        C  0.81726173  0.47466430  0.89937144    -0.25600
C557        C  0.84850092  0.47374036  0.92230883     0.36400
C558        C  0.88188361  0.50791342  0.92426282    -0.19600
C559        C  0.88392261  0.54191277  0.90314680    -0.24900
C560        C  0.85334526  0.54230908  0.87989627     0.27800
H561        H  0.79156519  0.44847135  0.89769477     0.13600
N562        N  0.84702719  0.43798513  0.94335519    -0.82100
H563        H  0.91012233  0.56764012  0.90455335     0.18400
N564        N  0.85708881  0.57618595  0.85769037    -0.80700
H565        H  0.82042760  0.41557375  0.93886816     0.34100
H566        H  0.87677851  0.41951344  0.94121781     0.38600
H567        H  0.88372481  0.59853142  0.86221028     0.34000
H568        H  0.86532972  0.55975238  0.83829887     0.30700
H569        H  0.81962014  0.41131770  0.81998819     0.34000
H570        H  0.85469684  0.44896654  0.83554464     0.30700
H571        H  0.71279548  0.59716500  0.79958477     0.38600
H572        H  0.70358602  0.60428715  0.83518110     0.34100
C573        C  0.50107332  0.11694575  0.57615568    -0.19700
C574        C  0.46921398  0.15218067  0.57493031     0.36500
C575        C  0.46780335  0.18442323  0.59742019    -0.25700
C576        C  0.49691216  0.18138426  0.62124291     0.03000
C577        C  0.52830836  0.14594956  0.62266329     0.27800
C578        C  0.53042499  0.11437686  0.59991915    -0.24800
N579        N  0.43811648  0.15461042  0.55109527    -0.82200
H580        H  0.44331509  0.21139496  0.59675631     0.13600
C581        C  0.49217453  0.21331591  0.64576215     0.02900
N582        N  0.55674762  0.14128475  0.64770168    -0.80700
H583        H  0.55464645  0.08718248  0.60085105     0.18400
C584        C  0.46075627  0.20330869  0.66756104    -0.25600
C585        C  0.45824708  0.22991025  0.69271896     0.36400
C586        C  0.48846227  0.26667140  0.69658544    -0.19600
C587        C  0.51835167  0.27800310  0.67393708    -0.24900
C588        C  0.52021957  0.25184812  0.64840380     0.27800
H589        H  0.43849490  0.17422787  0.66521176     0.13600
N590        N  0.42462769  0.21974133  0.71414992    -0.82100
H591        H  0.54124610  0.30650731  0.67650521     0.18400
N592        N  0.55018089  0.26433591  0.62514386    -0.80700
H593        H  0.42933550  0.18649067  0.72109654     0.34100
H594        H  0.39295626  0.22144355  0.70426013     0.38600
H595        H  0.56784366  0.29405423  0.63032001     0.34000
H596        H  0.57425735  0.23898594  0.62288736     0.30700
H597        H  0.57696104  0.11263846  0.64572453     0.34000
H598        H  0.57869659  0.16911869  0.64838229     0.30700
H599        H  0.41733277  0.12586836  0.55194298     0.38600
H600        H  0.41705787  0.18257481  0.55340931     0.34100
C601        C  0.50744774  0.11774420  0.92530727    -0.19700
C602        C  0.53912023  0.11596385  0.90225966     0.36500
C603        C  0.53642353  0.14751656  0.87975203    -0.25700
C604        C  0.50352723  0.18128674  0.87989520     0.03000
C605        C  0.47304908  0.18416736  0.90330312     0.27800
C606        C  0.47502213  0.15205715  0.92565806    -0.24800
N607        N  0.57472831  0.08326681  0.90111362    -0.82200
H608        H  0.56005876  0.14547249  0.86183835     0.13600
C609        C  0.50034715  0.21228669  0.85479368     0.02900
N610        N  0.44022380  0.21963325  0.90416498    -0.80700
H611        H  0.45093661  0.15344992  0.94334445     0.18400
C612        C  0.46171595  0.21045536  0.83728816    -0.25600
C613        C  0.45844377  0.23715001  0.81223782     0.36400
C614        C  0.49435662  0.26663617  0.80481712    -0.19600
C615        C  0.53246655  0.26938373  0.82276995    -0.24900
C616        C  0.53601805  0.24211963  0.84759502     0.27800
H617        H  0.43450544  0.18731099  0.84287235     0.13600
N618        N  0.41913124  0.23407007  0.79407400    -0.82100
H619        H  0.56006947  0.29184390  0.81686856     0.18400
N620        N  0.57586550  0.24405855  0.86530527    -0.80700
H621        H  0.39603543  0.21050075  0.80240898     0.34100
H622        H  0.40325456  0.26549252  0.79461527     0.38600
H623        H  0.59912821  0.26738642  0.85688976     0.34000
H624        H  0.56638866  0.25611236  0.88574444     0.30700
H625        H  0.42028838  0.21695550  0.92282355     0.34000
H626        H  0.45779263  0.25037754  0.90577517     0.30700
H627        H  0.57603866  0.06357457  0.91981958     0.38600
H628        H  0.56804481  0.06146679  0.88371567     0.34100
C629        C  0.51332172  0.88210657  0.57435699    -0.19700
C630        C  0.54765120  0.88125395  0.59569411     0.36500
C631        C  0.54575392  0.84840748  0.61750240    -0.25700
C632        C  0.51071327  0.81625559  0.61842451     0.03000
C633        C  0.47732170  0.81612924  0.59670263     0.27800
C634        C  0.47884345  0.84923448  0.57492652    -0.24800
N635        N  0.58500142  0.91266793  0.59582045    -0.82200
H636        H  0.57142861  0.84849554  0.63422434     0.13600
C637        C  0.50752738  0.78527085  0.64352853     0.02900
N638        N  0.44185700  0.78262699  0.59708944    -0.80700
H639        H  0.45276698  0.84984812  0.55848002     0.18400
C640        C  0.47084267  0.78956652  0.66251789    -0.25600
C641        C  0.46796936  0.76362577  0.68787507     0.36400
C642        C  0.50248832  0.73267235  0.69428233    -0.19600
C643        C  0.53847942  0.72720973  0.67480859    -0.24900
C644        C  0.54146816  0.75348452  0.64946700     0.27800
H645        H  0.44491524  0.81410066  0.65784031     0.13600
N646        N  0.43047645  0.76894733  0.70738969    -0.82100
H647        H  0.56487288  0.70336315  0.67984067     0.18400
N648        N  0.57895897  0.74852255  0.62993858    -0.80700
H649        H  0.40824994  0.79336489  0.69965287     0.34100
H650        H  0.41259571  0.73830214  0.70778051     0.38600
H651        H  0.60110670  0.72393070  0.63754488     0.34000
H652        H  0.56623370  0.73658445  0.61018232     0.30700
H653        H  0.41986869  0.78731847  0.57966501     0.34000
H654        H  0.45675953  0.75104147  0.59403748     0.30700
H655        H  0.58468033  0.93402497  0.57785671     0.38600
H656        H  0.58183350  0.93309281  0.61424788     0.34100
C657        C  0.49664011  0.73651148  0.80226979    -0.19700
C658        C  0.46813911  0.77450002  0.80486747     0.36500
C659        C  0.47032460  0.80151366  0.82993241    -0.25700
C660        C  0.49929623  0.79069660  0.85276190     0.03000
C661        C  0.52572701  0.75142081  0.85111776     0.27800
C662        C  0.52444025  0.72486249  0.82573921    -0.24800
N663        N  0.43691405  0.78535624  0.78213403    -0.82200
H664        H  0.44947831  0.83133492  0.83168877     0.13600
C665        C  0.50219740  0.82182855  0.87784113     0.02900
N666        N  0.55324280  0.73843160  0.87530937    -0.80700
H667        H  0.54596121  0.69555288  0.82401876     0.18400
C668        C  0.47028201  0.81827490  0.90018576    -0.25600
C669        C  0.46971937  0.84947100  0.92314738     0.36400
C670        C  0.50253604  0.88467561  0.92393147    -0.19600
C671        C  0.53454615  0.88796178  0.90154820    -0.24900
C672        C  0.53448775  0.85708415  0.87835717     0.27800
H673        H  0.44485896  0.79170636  0.89935718     0.13600
N674        N  0.43443049  0.84527373  0.94444593    -0.82100
H675        H  0.55931900  0.91516079  0.90206203     0.18400
N676        N  0.56600500  0.86226101  0.85482354    -0.80700
H677        H  0.44000614  0.81551389  0.95604231     0.34100
H678        H  0.43488869  0.87186771  0.95935255     0.38600
H679        H  0.58666311  0.89066360  0.85815398     0.34000
H680        H  0.58724978  0.83426778  0.85483600     0.30700
H681        H  0.56990565  0.70818958  0.87079987     0.34000
H682        H  0.57827351  0.76314245  0.87816757     0.30700
H683        H  0.41363242  0.75867717  0.78057454     0.38600
H684        H  0.41855344  0.81426936  0.78743618     0.34100
loop_ 
_geom_bond_atom_site_label_1 
_geom_bond_atom_site_label_2 
_geom_bond_distance 
_geom_bond_site_symmetry_2 
_ccdc_geom_bond_type 
N1            C6   1.353       .  A
N1            C5   1.353   1_565  A
N1           H33   1.041   1_565  S
N2           C10   1.350       .  A
N2          C351   1.349       .  A
N3            C8   1.352   1_545  A
N3            C7   1.351       .  A
N3           H34   1.041       .  S
N4           C12   1.349       .  A
N4          C353   1.348       .  A
C5           C13   1.388       .  A
C5           C21   1.417       .  A
C6           C22   1.415       .  A
C6           C14   1.386       .  A
C7           C15   1.386       .  A
C7           C24   1.412       .  A
C8           C23   1.413       .  A
C8           C16   1.387       .  A
C9          N344   1.349       .  A
C9           C21   1.411       .  A
C9           C17   1.386       .  A
C10          C24   1.410       .  A
C10          C18   1.386       .  A
C11         N346   1.348   1_554  A
C11          C19   1.386       .  A
C11          C22   1.409       .  A
C12          C20   1.386       .  A
C12          C23   1.410       .  A
C13          C14   1.378   1_545  A
C13          H25   1.082       .  S
C14          H26   1.082       .  S
C15          C16   1.377   1_545  A
C15          H27   1.082       .  S
C16          H28   1.082       .  S
C17         C360   1.375   1_554  A
C17          H29   1.082       .  S
C18         C359   1.375       .  A
C18          H30   1.082       .  S
C19         C362   1.376   1_554  A
C19          H31   1.082       .  S
C20         C361   1.376       .  A
C20          H32   1.082       .  S
C21         C231   1.491       .  S
C22         C287   1.486       .  S
C23         C328   1.487       .  S
C24         C259   1.487       .  S
C35          C36   1.403       .  A
C35          C40   1.406       .  A
C35         C244   1.490       .  S
C36          C37   1.400       .  A
C36          H41   1.084       .  S
C37          C38   1.404       .  A
C37         C272   1.481       .  S
C38          C39   1.409       .  A
C38          H42   1.084       .  S
C39          C40   1.409       .  A
C39         C116   1.485       .  S
C40          H43   1.083       .  S
C44          C45   1.401       .  A
C44          C49   1.399       .  A
C44         C300   1.479       .  S
C45          C46   1.408       .  A
C45          H50   1.084       .  S
C46          C47   1.410       .  A
C46         C115   1.485       .  S
C47          C48   1.407       .  A
C47          H51   1.083       .  S
C48          C49   1.402       .  A
C48         C315   1.490       .  S
C49          H52   1.084       .  S
N53          C58   1.355       .  A
N53          C57   1.355   1_455  A
N53          H85   1.038       .  S
N54          C62   1.352       .  A
N54         C403   1.351       .  A
N55          C60   1.354   1_655  A
N55          C59   1.353       .  A
N55          H86   1.039   1_655  S
N56          C64   1.352       .  A
N56         C405   1.352       .  A
C57          C65   1.387       .  A
C57          C73   1.418       .  A
C58          C74   1.422       .  A
C58          C66   1.389       .  A
C59          C67   1.386       .  A
C59          C76   1.415       .  A
C60          C75   1.417       .  A
C60          C68   1.387       .  A
C61         N396   1.351   1_554  A
C61          C73   1.414       .  A
C61          C69   1.386       .  A
C62          C76   1.413       .  A
C62          C70   1.386       .  A
C63         N398   1.352   1_554  A
C63          C71   1.387       .  A
C63          C74   1.416       .  A
C64          C72   1.385       .  A
C64          C75   1.415       .  A
C65          C66   1.373   1_655  A
C65          H77   1.082       .  S
C66          H78   1.081       .  S
C67          C68   1.374   1_655  A
C67          H79   1.082       .  S
C68          H80   1.082       .  S
C69         C412   1.374   1_554  A
C69          H81   1.082       .  S
C70         C411   1.374       .  A
C70          H82   1.082       .  S
C71         C414   1.372   1_554  A
C71          H83   1.081       .  S
C72         C413   1.372       .  A
C72          H84   1.082       .  S
C73         C175   1.490       .  S
C74         C119   1.492       .  S
C75         C147   1.493       .  S
C76         C216   1.489       .  S
C87          C88   1.406       .  A
C87          C92   1.404       .  A
C87         C132   1.494       .  S
C88          C89   1.409       .  A
C88          H93   1.083       .  S
C89          C90   1.408       .  A
C89         C117   1.485       .  S
C90          C91   1.406       .  A
C90          H94   1.083       .  S
C91          C92   1.403       .  A
C91         C160   1.493       .  S
C92          H95   1.082       .  S
C96          C97   1.407       .  A
C96         C101   1.404       .  A
C96         C188   1.493       .  S
C97          C98   1.411       .  A
C97         H102   1.083       .  S
C98          C99   1.408       .  A
C98         C118   1.485       .  S
C99         C100   1.402       .  A
C99         H103   1.083       .  S
C100        C101   1.399       .  A
C100        C203   1.480       .  S
C101        H104   1.084       .  S
O105       Ni113   1.919       .  S
O105        C115   1.282       .  A
O106       Ni113   1.918       .  S
O106        C116   1.282       .  A
O107       Ni113   1.918       .  S
O107        C117   1.282       .  A
O108       Ni113   1.918       .  S
O108        C118   1.282       .  A
O109       Ni114   1.921       .  S
O109        C118   1.283       .  A
O110       Ni114   1.921       .  S
O110        C117   1.283       .  A
O111       Ni114   1.921       .  S
O111        C116   1.282       .  A
O112       Ni114   1.921       .  S
O112        C115   1.282       .  A
Ni113      Ni114   2.385       .  S
C119        C120   1.418       .  A
C119        C124   1.405       .  A
C120        C121   1.400       .  A
C120        N125   1.438       .  S
C121        C122   1.400       .  A
C121        H126   1.084       .  S
C122        C123   1.410       .  A
C122        C127   1.480       .  S
C123        C124   1.407       .  A
C123        N128   1.439       .  S
C124        H129   1.084       .  S
N125        H145   1.043       .  S
N125        H146   1.045       .  S
C127        C130   1.402       .  A
C127        C134   1.408       .  A
N128        H143   1.046       .  S
N128        H144   1.043       .  S
C130        C131   1.409       .  A
C130        H135   1.084       .  S
C131        C132   1.416       .  A
C131        N136   1.438       .  S
C132        C133   1.408       .  A
C133        C134   1.403       .  A
C133        H137   1.083       .  S
C134        N138   1.439       .  S
N136        H139   1.046       .  S
N136        H140   1.046       .  S
N138        H141   1.046       .  S
N138        H142   1.043       .  S
C147        C148   1.420       .  A
C147        C152   1.404       .  A
C148        C149   1.403       .  A
C148        N153   1.438       .  S
C149        C150   1.401       .  A
C149        H154   1.084       .  S
C150        C151   1.409       .  A
C150        C155   1.479       .  S
C151        C152   1.404       .  A
C151        N156   1.439       .  S
C152        H157   1.084       .  S
N153        H173   1.043       .  S
N153        H174   1.045       .  S
C155        C158   1.400       .  A
C155        C162   1.408       .  A
N156        H171   1.046       .  S
N156        H172   1.044       .  S
C158        C159   1.406       .  A
C158        H163   1.084       .  S
C159        C160   1.417       .  A
C159        N164   1.438       .  S
C160        C161   1.407       .  A
C161        C162   1.406       .  A
C161        H165   1.083       .  S
C162        N166   1.438       .  S
N164        H167   1.046       .  S
N164        H168   1.045       .  S
N166        H169   1.046       .  S
N166        H170   1.044       .  S
C175        C176   1.408       .  A
C175        C180   1.404       .  A
C176        C177   1.402       .  A
C176        N181   1.432       .  S
C177        C178   1.400       .  A
C177        H182   1.084       .  S
C178        C179   1.412       .  A
C178        C183   1.479       .  S
C179        C180   1.408       .  A
C179        N184   1.438       .  S
C180        H185   1.084       .  S
N181        H201   1.046       .  S
N181        H202   1.045       .  S
C183        C186   1.399       .  A
C183        C190   1.409       .  A
N184        H199   1.046       .  S
N184        H200   1.044       .  S
C186        C187   1.404       .  A
C186        H191   1.084       .  S
C187        C188   1.417       .  A
C187        N192   1.438       .  S
C188        C189   1.408       .  A
C189        C190   1.408       .  A
C189        H193   1.083       .  S
C190        N194   1.438       .  S
N192        H195   1.046       .  S
N192        H196   1.046       .  S
N194        H197   1.046       .  S
N194        H198   1.044       .  S
C203        C204   1.410       .  A
C203        C208   1.403       .  A
C204        C205   1.408       .  A
C204        N209   1.437       .  S
C205        C206   1.405       .  A
C205        H210   1.084       .  S
C206        C207   1.410       .  A
C206        C211   1.484       .  S
C207        C208   1.403       .  A
C207        N212   1.438       .  S
C208        H213   1.084       .  S
N209        H229   1.046       .  S
N209        H230   1.046       .  S
C211        C214   1.404       .  A
C211        C218   1.410       .  A
N212        H227   1.046       .  S
N212        H228   1.046       .  S
C214        C215   1.407       .  A
C214        H219   1.084       .  S
C215        C216   1.410       .  A
C215        N220   1.437       .  S
C216        C217   1.402       .  A
C217        C218   1.405       .  A
C217        H221   1.084       .  S
C218        N222   1.438       .  S
N220        H223   1.045       .  S
N220        H224   1.046       .  S
N222        H225   1.045       .  S
N222        H226   1.046       .  S
C231        C232   1.414       .  A
C231        C236   1.403       .  A
C232        C233   1.407       .  A
C232        N237   1.438       .  S
C233        C234   1.401       .  A
C233        H238   1.084       .  S
C234        C235   1.409       .  A
C234        C239   1.478       .  S
C235        C236   1.403       .  A
C235        N240   1.438       .  S
C236        H241   1.084       .  S
N237        H257   1.046       .  S
N237        H258   1.046       .  S
C239        C242   1.399       .  A
C239        C246   1.409       .  A
N240        H255   1.046       .  S
N240        H256   1.045       .  S
C242        C243   1.402       .  A
C242        H247   1.084       .  S
C243        C244   1.413       .  A
C243        N248   1.433       .  S
C244        C245   1.407       .  A
C245        C246   1.408       .  A
C245        H249   1.083       .  S
C246        N250   1.438       .  S
N248        H251   1.045       .  S
N248        H252   1.046       .  S
N250        H253   1.046       .  S
N250        H254   1.044       .  S
C259        C260   1.418       .  A
C259        C264   1.404       .  A
C260        C261   1.400       .  A
C260        N265   1.438       .  S
C261        C262   1.402       .  A
C261        H266   1.084       .  S
C262        C263   1.409       .  A
C262        C267   1.482       .  S
C263        C264   1.405       .  A
C263        N268   1.437       .  S
C264        H269   1.084       .  S
N265        H285   1.043       .  S
N265        H286   1.045       .  S
C267        C270   1.402       .  A
C267        C274   1.410       .  A
N268        H283   1.046       .  S
N268        H284   1.046       .  S
C270        C271   1.405       .  A
C270        H275   1.084       .  S
C271        C272   1.412       .  A
C271        N276   1.438       .  S
C272        C273   1.403       .  A
C273        C274   1.406       .  A
C273        H277   1.084       .  S
C274        N278   1.437       .  S
N276        H279   1.046       .  S
N276        H280   1.045       .  S
N278        H281   1.046       .  S
N278        H282   1.045       .  S
C287        C288   1.417       .  A
C287        C292   1.404       .  A
C288        C289   1.401       .  A
C288        N293   1.438       .  S
C289        C290   1.402       .  A
C289        H294   1.084       .  S
C290        C291   1.409       .  A
C290        C295   1.481       .  S
C291        C292   1.405       .  A
C291        N296   1.438       .  S
C292        H297   1.084       .  S
N293        H313   1.043       .  S
N293        H314   1.045       .  S
C295        C298   1.401       .  A
C295        C302   1.411       .  A
N296        H311   1.046       .  S
N296        H312   1.046       .  S
C298        C299   1.402       .  A
C298        H303   1.084       .  S
C299        C300   1.411       .  A
C299        N304   1.438       .  S
C300        C301   1.403       .  A
C301        C302   1.407       .  A
C301        H305   1.084       .  S
C302        N306   1.437       .  S
N304        H307   1.046       .  S
N304        H308   1.045       .  S
N306        H309   1.046       .  S
N306        H310   1.046       .  S
C315        C316   1.416       .  A
C315        C320   1.407       .  A
C316        C317   1.404       .  A
C316        N321   1.438       .  S
C317        C318   1.399       .  A
C317        H322   1.084       .  S
C318        C319   1.408       .  A
C318        C323   1.478       .  S
C319        C320   1.408       .  A
C319        N324   1.438       .  S
C320        H325   1.083       .  S
N321        H341   1.045       .  S
N321        H342   1.046       .  S
C323        C326   1.401       .  A
C323        C330   1.408       .  A
N324        H339   1.046       .  S
N324        H340   1.044       .  S
C326        C327   1.402       .  A
C326        H331   1.084       .  S
C327        C328   1.418       .  A
C327        N332   1.438       .  S
C328        C329   1.404       .  A
C329        C330   1.404       .  A
C329        H333   1.084       .  S
C330        N334   1.438       .  S
N332        H335   1.045       .  S
N332        H336   1.043       .  S
N334        H337   1.046       .  S
N334        H338   1.044       .  S
N343        C348   1.353       .  A
N343        C347   1.353   1_565  A
N343        H375   1.041   1_565  S
N344        C352   1.350   1_554  A
N345        C350   1.352   1_545  A
N345        C349   1.351       .  A
N345        H376   1.041       .  S
N346        C354   1.349       .  A
C347        C355   1.388       .  A
C347        C363   1.417       .  A
C348        C364   1.415       .  A
C348        C356   1.386       .  A
C349        C357   1.386       .  A
C349        C366   1.412       .  A
C350        C365   1.413       .  A
C350        C358   1.387       .  A
C351        C363   1.411       .  A
C351        C359   1.386       .  A
C352        C366   1.410       .  A
C352        C360   1.386       .  A
C353        C361   1.386       .  A
C353        C364   1.409       .  A
C354        C362   1.386       .  A
C354        C365   1.410       .  A
C355        C356   1.378   1_545  A
C355        H367   1.082       .  S
C356        H368   1.082       .  S
C357        C358   1.377   1_545  A
C357        H369   1.082       .  S
C358        H370   1.082       .  S
C359        H371   1.082       .  S
C360        H372   1.082       .  S
C361        H373   1.082       .  S
C362        H374   1.082       .  S
C363        C573   1.491       .  S
C364        C629   1.486       .  S
C365        C670   1.487       .  S
C366        C601   1.487       .  S
C377        C378   1.403       .  A
C377        C382   1.406       .  A
C377        C586   1.490       .  S
C378        C379   1.400       .  A
C378        H383   1.084       .  S
C379        C380   1.404       .  A
C379        C614   1.481       .  S
C380        C381   1.409       .  A
C380        H384   1.084       .  S
C381        C382   1.409       .  A
C381        C458   1.485       .  S
C382        H385   1.083       .  S
C386        C387   1.401       .  A
C386        C391   1.399       .  A
C386        C642   1.479       .  S
C387        C388   1.408       .  A
C387        H392   1.084       .  S
C388        C389   1.410       .  A
C388        C457   1.485       .  S
C389        C390   1.407       .  A
C389        H393   1.083       .  S
C390        C391   1.402       .  A
C390        C657   1.490       .  S
C391        H394   1.084       .  S
N395        C400   1.355       .  A
N395        C399   1.355   1_455  A
N395        H427   1.038       .  S
N396        C404   1.352       .  A
N397        C402   1.354   1_655  A
N397        C401   1.353       .  A
N397        H428   1.039   1_655  S
N398        C406   1.352       .  A
C399        C407   1.387       .  A
C399        C415   1.418       .  A
C400        C416   1.422       .  A
C400        C408   1.389       .  A
C401        C409   1.386       .  A
C401        C418   1.415       .  A
C402        C417   1.417       .  A
C402        C410   1.387       .  A
C403        C415   1.414       .  A
C403        C411   1.386       .  A
C404        C418   1.413       .  A
C404        C412   1.386       .  A
C405        C413   1.387       .  A
C405        C416   1.416       .  A
C406        C414   1.385       .  A
C406        C417   1.415       .  A
C407        C408   1.373   1_655  A
C407        H419   1.082       .  S
C408        H420   1.081       .  S
C409        C410   1.374   1_655  A
C409        H421   1.082       .  S
C410        H422   1.082       .  S
C411        H423   1.082       .  S
C412        H424   1.082       .  S
C413        H425   1.081       .  S
C414        H426   1.082       .  S
C415        C517   1.490       .  S
C416        C461   1.492       .  S
C417        C489   1.493       .  S
C418        C558   1.489       .  S
C429        C430   1.406       .  A
C429        C434   1.404       .  A
C429        C474   1.494       .  S
C430        C431   1.409       .  A
C430        H435   1.083       .  S
C431        C432   1.408       .  A
C431        C459   1.485       .  S
C432        C433   1.406       .  A
C432        H436   1.083       .  S
C433        C434   1.403       .  A
C433        C502   1.493       .  S
C434        H437   1.082       .  S
C438        C439   1.407       .  A
C438        C443   1.404       .  A
C438        C530   1.493       .  S
C439        C440   1.411       .  A
C439        H444   1.083       .  S
C440        C441   1.408       .  A
C440        C460   1.485       .  S
C441        C442   1.402       .  A
C441        H445   1.083       .  S
C442        C443   1.399       .  A
C442        C545   1.480       .  S
C443        H446   1.084       .  S
O447       Ni455   1.919       .  S
O447        C457   1.282       .  A
O448       Ni455   1.918       .  S
O448        C458   1.282       .  A
O449       Ni455   1.918       .  S
O449        C459   1.282       .  A
O450       Ni455   1.918       .  S
O450        C460   1.282       .  A
O451       Ni456   1.921       .  S
O451        C460   1.283       .  A
O452       Ni456   1.921       .  S
O452        C459   1.283       .  A
O453       Ni456   1.921       .  S
O453        C458   1.282       .  A
O454       Ni456   1.921       .  S
O454        C457   1.282       .  A
Ni455      Ni456   2.385       .  S
C461        C462   1.418       .  A
C461        C466   1.405       .  A
C462        C463   1.400       .  A
C462        N467   1.438       .  S
C463        C464   1.400       .  A
C463        H468   1.084       .  S
C464        C465   1.410       .  A
C464        C469   1.480       .  S
C465        C466   1.407       .  A
C465        N470   1.439       .  S
C466        H471   1.084       .  S
N467        H487   1.043       .  S
N467        H488   1.045       .  S
C469        C472   1.402       .  A
C469        C476   1.408       .  A
N470        H485   1.046       .  S
N470        H486   1.043       .  S
C472        C473   1.409       .  A
C472        H477   1.084       .  S
C473        C474   1.416       .  A
C473        N478   1.438       .  S
C474        C475   1.408       .  A
C475        C476   1.403       .  A
C475        H479   1.083       .  S
C476        N480   1.439       .  S
N478        H481   1.046       .  S
N478        H482   1.046       .  S
N480        H483   1.046       .  S
N480        H484   1.043       .  S
C489        C490   1.420       .  A
C489        C494   1.404       .  A
C490        C491   1.403       .  A
C490        N495   1.438       .  S
C491        C492   1.401       .  A
C491        H496   1.084       .  S
C492        C493   1.409       .  A
C492        C497   1.479       .  S
C493        C494   1.404       .  A
C493        N498   1.439       .  S
C494        H499   1.084       .  S
N495        H515   1.043       .  S
N495        H516   1.045       .  S
C497        C500   1.400       .  A
C497        C504   1.408       .  A
N498        H513   1.046       .  S
N498        H514   1.044       .  S
C500        C501   1.406       .  A
C500        H505   1.084       .  S
C501        C502   1.417       .  A
C501        N506   1.438       .  S
C502        C503   1.407       .  A
C503        C504   1.406       .  A
C503        H507   1.083       .  S
C504        N508   1.438       .  S
N506        H509   1.046       .  S
N506        H510   1.045       .  S
N508        H511   1.046       .  S
N508        H512   1.044       .  S
C517        C518   1.408       .  A
C517        C522   1.404       .  A
C518        C519   1.402       .  A
C518        N523   1.432       .  S
C519        C520   1.400       .  A
C519        H524   1.084       .  S
C520        C521   1.412       .  A
C520        C525   1.479       .  S
C521        C522   1.408       .  A
C521        N526   1.438       .  S
C522        H527   1.084       .  S
N523        H543   1.046       .  S
N523        H544   1.045       .  S
C525        C528   1.399       .  A
C525        C532   1.409       .  A
N526        H541   1.046       .  S
N526        H542   1.044       .  S
C528        C529   1.404       .  A
C528        H533   1.084       .  S
C529        C530   1.417       .  A
C529        N534   1.438       .  S
C530        C531   1.408       .  A
C531        C532   1.408       .  A
C531        H535   1.083       .  S
C532        N536   1.438       .  S
N534        H537   1.046       .  S
N534        H538   1.046       .  S
N536        H539   1.046       .  S
N536        H540   1.044       .  S
C545        C546   1.410       .  A
C545        C550   1.403       .  A
C546        C547   1.408       .  A
C546        N551   1.437       .  S
C547        C548   1.405       .  A
C547        H552   1.084       .  S
C548        C549   1.410       .  A
C548        C553   1.484       .  S
C549        C550   1.403       .  A
C549        N554   1.438       .  S
C550        H555   1.084       .  S
N551        H571   1.046       .  S
N551        H572   1.046       .  S
C553        C556   1.404       .  A
C553        C560   1.410       .  A
N554        H569   1.046       .  S
N554        H570   1.046       .  S
C556        C557   1.407       .  A
C556        H561   1.084       .  S
C557        C558   1.410       .  A
C557        N562   1.437       .  S
C558        C559   1.402       .  A
C559        C560   1.405       .  A
C559        H563   1.084       .  S
C560        N564   1.438       .  S
N562        H565   1.045       .  S
N562        H566   1.046       .  S
N564        H567   1.045       .  S
N564        H568   1.046       .  S
C573        C574   1.414       .  A
C573        C578   1.403       .  A
C574        C575   1.407       .  A
C574        N579   1.438       .  S
C575        C576   1.401       .  A
C575        H580   1.084       .  S
C576        C577   1.409       .  A
C576        C581   1.478       .  S
C577        C578   1.403       .  A
C577        N582   1.438       .  S
C578        H583   1.084       .  S
N579        H599   1.046       .  S
N579        H600   1.046       .  S
C581        C584   1.399       .  A
C581        C588   1.409       .  A
N582        H597   1.046       .  S
N582        H598   1.045       .  S
C584        C585   1.402       .  A
C584        H589   1.084       .  S
C585        C586   1.413       .  A
C585        N590   1.433       .  S
C586        C587   1.407       .  A
C587        C588   1.408       .  A
C587        H591   1.083       .  S
C588        N592   1.438       .  S
N590        H593   1.045       .  S
N590        H594   1.046       .  S
N592        H595   1.046       .  S
N592        H596   1.044       .  S
C601        C602   1.418       .  A
C601        C606   1.404       .  A
C602        C603   1.400       .  A
C602        N607   1.438       .  S
C603        C604   1.402       .  A
C603        H608   1.084       .  S
C604        C605   1.409       .  A
C604        C609   1.482       .  S
C605        C606   1.405       .  A
C605        N610   1.437       .  S
C606        H611   1.084       .  S
N607        H627   1.043       .  S
N607        H628   1.045       .  S
C609        C612   1.402       .  A
C609        C616   1.410       .  A
N610        H625   1.046       .  S
N610        H626   1.046       .  S
C612        C613   1.405       .  A
C612        H617   1.084       .  S
C613        C614   1.412       .  A
C613        N618   1.438       .  S
C614        C615   1.403       .  A
C615        C616   1.406       .  A
C615        H619   1.084       .  S
C616        N620   1.437       .  S
N618        H621   1.046       .  S
N618        H622   1.045       .  S
N620        H623   1.046       .  S
N620        H624   1.045       .  S
C629        C630   1.417       .  A
C629        C634   1.404       .  A
C630        C631   1.401       .  A
C630        N635   1.438       .  S
C631        C632   1.402       .  A
C631        H636   1.084       .  S
C632        C633   1.409       .  A
C632        C637   1.481       .  S
C633        C634   1.405       .  A
C633        N638   1.438       .  S
C634        H639   1.084       .  S
N635        H655   1.043       .  S
N635        H656   1.045       .  S
C637        C640   1.401       .  A
C637        C644   1.411       .  A
N638        H653   1.046       .  S
N638        H654   1.046       .  S
C640        C641   1.402       .  A
C640        H645   1.084       .  S
C641        C642   1.411       .  A
C641        N646   1.438       .  S
C642        C643   1.403       .  A
C643        C644   1.407       .  A
C643        H647   1.084       .  S
C644        N648   1.437       .  S
N646        H649   1.046       .  S
N646        H650   1.045       .  S
N648        H651   1.046       .  S
N648        H652   1.046       .  S
C657        C658   1.416       .  A
C657        C662   1.407       .  A
C658        C659   1.404       .  A
C658        N663   1.438       .  S
C659        C660   1.399       .  A
C659        H664   1.084       .  S
C660        C661   1.408       .  A
C660        C665   1.478       .  S
C661        C662   1.408       .  A
C661        N666   1.438       .  S
C662        H667   1.083       .  S
N663        H683   1.045       .  S
N663        H684   1.046       .  S
C665        C668   1.401       .  A
C665        C672   1.408       .  A
N666        H681   1.046       .  S
N666        H682   1.044       .  S
C668        C669   1.402       .  A
C668        H673   1.084       .  S
C669        C670   1.418       .  A
C669        N674   1.438       .  S
C670        C671   1.404       .  A
C671        C672   1.404       .  A
C671        H675   1.084       .  S
C672        N676   1.438       .  S
N674        H677   1.045       .  S
N674        H678   1.043       .  S
N676        H679   1.046       .  S
N676        H680   1.044       .  S
