geometry optimzed in LAMMPS
_audit_creation_date              2020-11-30 
_audit_creation_method            'lammps2cif' 
_symmetry_space_group_name_H-M    'P1' 
_symmetry_Int_Tables_number       1 
_symmetry_cell_setting            triclinic 
loop_ 
_symmetry_equiv_pos_as_xyz 
  x,y,z 
_cell_length_a                    32.91653468 
_cell_length_b                    33.96818316963662 
_cell_length_c                    45.93061060154996 
_cell_angle_alpha                 91.0539848686572 
_cell_angle_beta                  90.2793039019459 
_cell_angle_gamma                 81.30058781161809 
loop_ 
_atom_site_label 
_atom_site_type_symbol 
_atom_site_fract_x 
_atom_site_fract_y 
_atom_site_fract_z 
_atom_site_charge 
O1          O  0.18815740  0.34883237  0.61014904    -0.78200
C2          C  0.31511608  0.33652660  0.62068030     0.82800
O3          O  0.25018752  0.23237814  0.55060473    -0.79300
O4          O  0.33193287  0.21009226  0.63828475    -0.80800
O5          O  0.20922219  0.26752224  0.69017830    -0.80600
O6          O  0.15282570  0.31377454  0.63806204    -0.79200
Zn7        Zn  0.23746849  0.31068928  0.59745360     1.55700
O8          O  0.27733913  0.26202007  0.69026613    -0.80600
Cd9        Cd  0.19497882  0.26454801  0.64643114     1.59700
Cd10       Cd  0.24898956  0.21555242  0.59425400     1.59600
O11         O  0.16832833  0.21450944  0.64017658    -0.80600
O12         O  0.24349828  0.26330816  0.62069160    -1.91100
Cd13       Cd  0.29227000  0.26136471  0.64650433     1.59900
O14         O  0.20103951  0.18403506  0.60147457    -0.80600
O15         O  0.32240399  0.30883537  0.63909204    -0.79200
C16         C  0.24363896  0.26662167  0.53886700     0.83300
C17         C  0.15659737  0.34592045  0.62530385     0.82900
O18         O  0.28461365  0.33967449  0.60347797    -0.78200
C19         C  0.24325991  0.26515676  0.70374533     0.83800
O20         O  0.23611224  0.29857081  0.55415608    -0.78300
C21         C  0.17355828  0.18655570  0.62117395     0.83900
C22         C  0.33084802  0.17920009  0.62241195     0.84200
O23         O  0.30155095  0.17663895  0.60456403    -0.80700
C24         C  0.02273959  0.47980094  0.63771477     0.30300
C25         C  0.46079863  0.04333472  0.63693933     0.30300
C26         C  0.48433300  0.47365466  0.62028568    -0.05900
C27         C  0.00490301  0.49428824  0.66791427    -0.06700
C28         C  0.03392348  0.01878520  0.62621810    -0.06600
C29         C  0.45247213  0.50601713  0.62008599    -0.05900
C30         C  0.47169109  0.02548728  0.66734731    -0.06700
C31         C  0.00230781  0.05075525  0.62556656    -0.06600
C32         C  0.41628968  0.49046439  0.61727993    -0.32000
N33         N  0.42500961  0.45031983  0.61556489     0.14500
C34         C  0.46609783  0.43988792  0.61774634    -0.32000
H35         H  0.48128649  0.40962466  0.62044376     0.16500
C36         C  0.45793271  0.03166223  0.69564227    -0.30900
N37         N  0.98428054  0.50871630  0.71336756     0.13300
C38         C  0.01369170  0.48672691  0.69690099    -0.30900
C39         C  0.02001109  0.08475265  0.62441345    -0.31200
N40         N  0.06125581  0.07441662  0.62343579     0.13800
H41         H  0.00421146  0.11504969  0.62616027     0.16400
C42         C  0.07023118  0.03429522  0.62527435    -0.31200
H43         H  0.10087232  0.01779667  0.62742974     0.16400
H44         H  0.03968439  0.46707071  0.70558358     0.16400
H45         H  0.38567302  0.50707963  0.61942546     0.16500
H46         H  0.43135374  0.05193564  0.70310144     0.16400
O47         O  0.02756953  0.08462072  0.94111162    -0.78200
C48         C  0.40002073  0.08943643  0.92145338     0.82800
O49         O  0.00504553  0.46715869  0.98857591    -0.79300
O50         O  0.40712080  0.46041200  0.90649861    -0.80800
O51         O  0.01615619  0.01325318  0.85128641    -0.80600
O52         O  0.06680509  0.05306510  0.90625431    -0.79200
Zn53       Zn  0.98226214  0.05219073  0.94854289     1.55700
O54         O  0.44992524  0.00712179  0.85296283    -0.80600
Cd55       Cd  0.03476835  0.00739933  0.89462440     1.59700
Cd56       Cd  0.99658818  0.45629285  0.94463533     1.59600
O57         O  0.07388850  0.45446278  0.89631454    -0.80600
O58         O  0.98784372  0.00651766  0.92179672    -1.91100
Cd59       Cd  0.43764824  0.00731331  0.89726075     1.59900
O60         O  0.04771202  0.41872774  0.92975736    -0.80600
O61         O  0.39845765  0.05889422  0.90534396    -0.79200
C62         C  0.99890745  0.99949621  0.00345726     0.83300
C63         C  0.05871726  0.08190288  0.92447527     0.82900
O64         O  0.42946824  0.09054034  0.93956127    -0.78200
C65         C  0.98205167  0.01086346  0.83856090     0.83800
O66         O  0.98806986  0.03323091  0.99133537    -0.78300
C67         C  0.07481733  0.42276854  0.91079007     0.83900
C68         C  0.41424766  0.43212067  0.92449615     0.84200
O69         O  0.44612884  0.42701704  0.94062673    -0.80700
C70         C  0.26898705  0.22649833  0.90555996     0.30300
C71         C  0.20606452  0.28964138  0.90236940     0.30300
C72         C  0.27571043  0.26464306  0.92231282    -0.05900
C73         C  0.25898836  0.24361631  0.87468575    -0.06700
C74         C  0.22700931  0.21932000  0.91671594    -0.06600
C75         C  0.24326443  0.29661408  0.92167353    -0.05900
C76         C  0.22620893  0.27473937  0.87358707    -0.06700
C77         C  0.19513858  0.25122874  0.91578892    -0.06600
C78         C  0.25994782  0.33016760  0.92976617    -0.32000
N79         N  0.30122320  0.32035867  0.93245522     0.14500
C80         C  0.31095563  0.28056040  0.92825023    -0.32000
H81         H  0.34225248  0.26475922  0.92610014     0.16500
C82         C  0.21988218  0.28571017  0.84516190    -0.30900
N83         N  0.24868241  0.26340149  0.82864756     0.13300
C84         C  0.27355258  0.23843811  0.84626900    -0.30900
C85         C  0.16034509  0.23701379  0.92520899    -0.31200
N86         N  0.16977431  0.19728838  0.92943597     0.13800
H87         H  0.12948331  0.25331559  0.92656610     0.16400
C88         C  0.21059428  0.18630640  0.92485322    -0.31200
H89         H  0.22623523  0.15593692  0.92460364     0.16400
H90         H  0.29968998  0.21763941  0.83871684     0.16400
H91         H  0.24435436  0.36020432  0.93054529     0.16500
H92         H  0.19569602  0.30789492  0.83690948     0.16400
O93         O  0.07790632  0.41092300  0.10160657    -0.78200
C94         C  0.44609882  0.41212133  0.11208605     0.82800
O95         O  0.49560028  0.02991574  0.05038145    -0.79300
O96         O  0.42323855  0.04115907  0.14083607    -0.80800
O97         O  0.04309059  0.00422021  0.18708277    -0.80600
O98         O  0.10176150  0.44272724  0.13962984    -0.79200
Zn99       Zn  0.52267054  0.44574015  0.09064811     1.55700
O100        O  0.48042672  0.98686945  0.18658432    -0.80600
Cd101      Cd  0.06125568  0.99568363  0.14335750     1.59700
Cd102      Cd  0.50287512  0.04262167  0.09413332     1.59600
O103        O  0.09155702  0.04254631  0.13174068    -0.80600
O104        O  0.51315060  0.99232889  0.11709148    -1.91100
Cd105      Cd  0.46468521  0.98909254  0.14265783     1.59900
O106        O  0.05182619  0.07501228  0.09770151    -0.80600
O107        O  0.43650938  0.44043621  0.13063949    -0.79200
C108        C  0.50442076  0.99774058  0.03552200     0.83300
C109        C  0.10425684  0.41287929  0.12206518     0.82900
O110        O  0.47785023  0.41051966  0.09598091    -0.78200
C111        C  0.51096564  0.99723332  0.20035017     0.83800
O112        O  0.51754403  0.46441520  0.04764848    -0.78300
C113        C  0.08380836  0.07101712  0.11382279     0.83900
C114        C  0.42290843  0.07400497  0.12783271     0.84200
O115        O  0.45051322  0.07889204  0.10938714    -0.80700
C116        C  0.23521413  0.27744459  0.14082884     0.30300
C117        C  0.29666684  0.21198272  0.14452995     0.30300
C118        C  0.27563874  0.28006137  0.12399269    -0.05900
C119        C  0.25108966  0.26567874  0.17139078    -0.06700
C120        C  0.22459103  0.23748938  0.12823490    -0.06600
C121        C  0.30684847  0.24713184  0.12612130    -0.05900
C122        C  0.28182554  0.23278748  0.17330182    -0.06700
C123        C  0.25574534  0.20451956  0.12987493    -0.06600
C124        C  0.34194332  0.25860490  0.11446797    -0.32000
N125        N  0.33359452  0.29722560  0.10632614     0.14500
C126        C  0.29284797  0.30957013  0.11030313    -0.32000
H127        H  0.27814808  0.33957272  0.10618024     0.16500
C128        C  0.29005359  0.22669617  0.20247102    -0.30900
N129        N  0.26515436  0.25485301  0.21810635     0.13300
C130        C  0.24136998  0.27879556  0.19937155    -0.30900
C131        C  0.23903055  0.17191468  0.11944110    -0.31200
N132        N  0.19868655  0.18327441  0.11347971     0.13800
H133        H  0.25392247  0.14137104  0.11805969     0.16400
C134        C  0.18994784  0.22333092  0.11755275    -0.31200
H135        H  0.15963183  0.24019734  0.11485859     0.16400
H136        H  0.21814848  0.30345378  0.20574791     0.16400
H137        H  0.37250627  0.24182105  0.11465988     0.16500
H138        H  0.31195237  0.20320092  0.21170086     0.16400
C139        C  0.46595277  0.05546883  0.40000196     0.30300
C140        C  0.03104128  0.49400206  0.40355103     0.30300
C141        C  0.45777922  0.01826050  0.41699404    -0.05900
C142        C  0.48323783  0.03694235  0.37073155    -0.06700
C143        C  0.00517359  0.06493930  0.41597159    -0.06600
C144        C  0.49053632  0.48685809  0.41764740    -0.05900
C145        C  0.01567302  0.50536522  0.37254129    -0.06700
C146        C  0.03792673  0.03381613  0.41700899    -0.06600
C147        C  0.47476425  0.45315947  0.42521651    -0.32000
N148        N  0.43421841  0.46329278  0.43104761     0.14500
C149        C  0.42379865  0.50302257  0.42706970    -0.32000
H150        H  0.39274475  0.01847229  0.42892198     0.16500
C151        C  0.02371071  0.49107734  0.34449838    -0.30900
N152        N  0.49916222  0.01412364  0.32565637     0.13300
C153        C  0.47388761  0.04194680  0.34148361    -0.30900
C154        C  0.07233751  0.04929219  0.42573437    -0.31200
N155        N  0.06147414  0.08877478  0.43087579     0.13800
H156        H  0.10364392  0.03396908  0.42523893     0.16400
C157        C  0.02049426  0.09836265  0.42627780    -0.31200
H158        H  0.00437329  0.12845451  0.42787961     0.16400
H159        H  0.45031802  0.06400239  0.33239695     0.16400
H160        H  0.49068459  0.42288170  0.42379750     0.16500
H161        H  0.04596260  0.46566513  0.33806646     0.16400
O162        O  0.20666922  0.19553970  0.44152487    -0.78200
C163        C  0.33450863  0.18842208  0.41791501     0.82800
O164        O  0.23831186  0.30374813  0.49508217    -0.79300
O165        O  0.32937936  0.31865171  0.41329908    -0.80800
O166        O  0.21841553  0.26579812  0.35527636    -0.80600
O167        O  0.16562780  0.23185662  0.41014341    -0.79200
Zn168      Zn  0.25490762  0.22441154  0.44832936     1.55700
O169        O  0.28300652  0.27801686  0.35687790    -0.80600
Cd170      Cd  0.20006944  0.27509587  0.39857106     1.59700
Cd171      Cd  0.24101102  0.32119738  0.45164208     1.59600
O172        O  0.16330531  0.33016307  0.40130242    -0.80600
O173        O  0.24821811  0.27298121  0.42542895    -1.91100
Cd174      Cd  0.29733937  0.27339733  0.40070423     1.59900
O175        O  0.18811279  0.35932870  0.44012005    -0.80600
O176        O  0.33471276  0.21965216  0.40310110    -0.79200
C177        C  0.24535283  0.26948758  0.50681713     0.83300
C178        C  0.17358957  0.20199104  0.42675090     0.82900
O179        O  0.30662857  0.18604749  0.43675566    -0.78200
C180        C  0.25167138  0.27065532  0.34260234     0.83800
O181        O  0.25406723  0.23753830  0.49160627    -0.78300
C182        C  0.16226512  0.35929036  0.41930410     0.83900
C183        C  0.32144157  0.34880941  0.43037633     0.84200
O184        O  0.28921871  0.35398460  0.44619630    -0.80700
C185        C  0.10342481  0.12880440  0.40319021    -0.01600
C186        C  0.08967654  0.11699222  0.43017379     0.08100
C187        C  0.10342461  0.13286374  0.45615509    -0.01700
C188        C  0.13091016  0.16083097  0.45531270    -0.01700
C189        C  0.14419883  0.17327707  0.42818535     0.08200
C190        C  0.13020204  0.15716032  0.40213125    -0.01900
Br191      Br  0.14902226  0.17212810  0.36475083    -0.00400
Br192      Br  0.08635932  0.10517297  0.36758153    -0.00500
Br193      Br  0.14881409  0.18295755  0.49129392    -0.00500
Br194      Br  0.08438834  0.11549733  0.49257016    -0.00500
C195        C  0.07364371  0.44152215  0.43568045    -0.01600
C196        C  0.06815143  0.46108505  0.40842509     0.08100
C197        C  0.10091413  0.45280017  0.38815786    -0.01700
C198        C  0.13001896  0.41804105  0.39080184    -0.01700
C199        C  0.13036593  0.39448872  0.41575433     0.08200
C200        C  0.10310801  0.40722099  0.43866010    -0.01900
Br201      Br  0.10547324  0.37708550  0.47408609    -0.00400
Br202      Br  0.04718918  0.46480642  0.47089173    -0.00500
Br203      Br  0.17146514  0.40434795  0.36116113    -0.00500
Br204      Br  0.11465882  0.49353603  0.36273372    -0.00500
C205        C  0.38832285  0.08470749  0.39614689    -0.01600
C206        C  0.42999565  0.09035934  0.39718904     0.08100
C207        C  0.43735771  0.13009790  0.39625443    -0.01700
C208        C  0.40769953  0.16113613  0.40658716    -0.01700
C209        C  0.36720530  0.15410832  0.41185531     0.08200
C210        C  0.35716645  0.11588779  0.40509664    -0.01900
Br211      Br  0.30077562  0.10656540  0.40585692    -0.00400
Br212      Br  0.37304159  0.04087413  0.37331976    -0.00500
Br213      Br  0.42407941  0.21264054  0.41418669    -0.00500
Br214      Br  0.47977719  0.14368430  0.37123653    -0.00500
C215        C  0.35823680  0.39944666  0.45709676    -0.01600
C216        C  0.35003256  0.37906436  0.43093188     0.08100
C217        C  0.36924050  0.38818454  0.40479518    -0.01700
C218        C  0.39711545  0.41570993  0.40515805    -0.01700
C219        C  0.40541678  0.43541449  0.43118471     0.08200
C220        C  0.38540970  0.42790839  0.45695961    -0.01900
Br221      Br  0.39618570  0.45666760  0.49198503    -0.00400
Br222      Br  0.33443609  0.38760976  0.49366709    -0.00500
Br223      Br  0.42334815  0.42771135  0.36960543    -0.00500
Br224      Br  0.35612956  0.36557081  0.36757566    -0.00500
C225        C  0.27303127  0.29232330  0.26369317    -0.01600
C226        C  0.26283487  0.25819253  0.24932529     0.08100
C227        C  0.24902716  0.22808281  0.26557789    -0.01700
C228        C  0.24638289  0.23167899  0.29612654    -0.01700
C229        C  0.25461803  0.26678230  0.31044787     0.08200
C230        C  0.26765098  0.29727068  0.29399722    -0.01900
Br231      Br  0.27624316  0.34672836  0.31255437    -0.00800
Br232      Br  0.29617132  0.33135147  0.24180637    -0.00500
Br233      Br  0.23467554  0.18710882  0.31830201    -0.00500
Br234      Br  0.23210289  0.18272155  0.24581225    -0.00500
C235        C  0.50139924  0.96920148  0.24971651    -0.01600
C236        C  0.50856570  0.00155716  0.23266320     0.08100
C237        C  0.01184339  0.03838752  0.24657494    -0.01700
C238        C  0.01010122  0.04214929  0.27724007    -0.01700
C239        C  0.50131569  0.01024534  0.29422227     0.08200
C240        C  0.49669448  0.97383321  0.28017348    -0.01900
Br241      Br  0.48257622  0.93042993  0.30245124    -0.00400
Br242      Br  0.49954029  0.91788546  0.23145418    -0.00500
Br243      Br  0.02297329  0.08996871  0.29602205    -0.00500
Br244      Br  0.01534823  0.08468142  0.22364607    -0.00500
C245        C  0.14926543  0.14803040  0.13887459    -0.01600
C246        C  0.16870434  0.15634559  0.11287979     0.08100
C247        C  0.16034863  0.13638113  0.08694992    -0.01700
C248        C  0.13246215  0.10850027  0.08692405    -0.01700
C249        C  0.11213190  0.10113916  0.11285613     0.08200
C250        C  0.12013380  0.12172881  0.13866198    -0.01900
Br251      Br  0.09007249  0.11508838  0.17373941    -0.00400
Br252      Br  0.16505346  0.16989208  0.17539884    -0.00500
Br253      Br  0.12432752  0.07851725  0.05197718    -0.00500
Br254      Br  0.18877967  0.14644960  0.05203714    -0.00500
C255        C  0.12737713  0.34212454  0.13659689    -0.01600
C256        C  0.13752749  0.37870567  0.12714120     0.08100
C257        C  0.17890479  0.38478260  0.12921127    -0.01700
C258        C  0.20941657  0.35380286  0.13851901    -0.01700
C259        C  0.20063527  0.31437017  0.14046046     0.08200
C260        C  0.15868102  0.31111855  0.14495401    -0.01900
Br261      Br  0.14403427  0.27210596  0.17125076    -0.00400
Br262      Br  0.07040211  0.33582752  0.14104218    -0.00500
Br263      Br  0.25508166  0.36927435  0.16002824    -0.00500
Br264      Br  0.19424971  0.43567729  0.11990865    -0.00500
C265        C  0.40302515  0.14568625  0.14269788    -0.01600
C266        C  0.39108512  0.10833714  0.13581118     0.08100
C267        C  0.34998808  0.10329020  0.14131032    -0.01700
C268        C  0.32119077  0.13626074  0.15013439    -0.01700
C269        C  0.33074304  0.17524586  0.14789407     0.08200
C270        C  0.37298957  0.17850823  0.15009999    -0.01900
Br271      Br  0.39019858  0.22173037  0.17208603    -0.00400
Br272      Br  0.46064589  0.15113057  0.14531392    -0.00500
Br273      Br  0.27693825  0.12684404  0.17523483    -0.00500
Br274      Br  0.33188836  0.05210850  0.13663012    -0.00500
C275        C  0.40455381  0.36818750  0.08255343    -0.01600
C276        C  0.41960975  0.38020227  0.10976654     0.08100
C277        C  0.40730279  0.36303417  0.13539621    -0.01700
C278        C  0.37822883  0.33670829  0.13411228    -0.01700
C279        C  0.36353649  0.32428558  0.10706146     0.08200
C280        C  0.37701522  0.33991079  0.08129482    -0.01900
Br281      Br  0.35637155  0.32316448  0.04458792    -0.00400
Br282      Br  0.41962936  0.39179592  0.04709033    -0.00500
Br283      Br  0.35616614  0.32039417  0.16987861    -0.00500
Br284      Br  0.43180984  0.37369363  0.17248917    -0.00500
C285        C  0.09284755  0.13310941  0.95259807    -0.01600
C286        C  0.08584875  0.11328027  0.92592334     0.08100
C287        C  0.10466313  0.12429294  0.90024903    -0.01700
C288        C  0.13224283  0.15194697  0.90169379    -0.01700
C289        C  0.14033623  0.17016030  0.92833250     0.08200
C290        C  0.11929218  0.16214262  0.95344190    -0.01900
Br291      Br  0.12667758  0.19190126  0.98862095    -0.00400
Br292      Br  0.06817563  0.12022728  0.98853318    -0.00500
Br293      Br  0.15801211  0.16635809  0.86680853    -0.00500
Br294      Br  0.09125720  0.10437362  0.86233478    -0.00500
C295        C  0.35218993  0.14892635  0.94210705    -0.01600
C296        C  0.36685609  0.12437130  0.91807309     0.08100
C297        C  0.34693250  0.13131785  0.89080201    -0.01700
C298        C  0.31208316  0.16043886  0.88824161    -0.01700
C299        C  0.30236238  0.18988949  0.91029108     0.08200
C300        C  0.32016316  0.18130975  0.93837288    -0.01900
Br301      Br  0.29721199  0.20887869  0.97329022    -0.00400
Br302      Br  0.37368324  0.13703356  0.98081109    -0.00500
Br303      Br  0.27162747  0.14953943  0.85980052    -0.00500
Br304      Br  0.36717562  0.10289710  0.85556325    -0.00500
C305        C  0.09842674  0.35096396  0.89882470    -0.01600
C306        C  0.10799195  0.38940662  0.90486732     0.08100
C307        C  0.14887461  0.39636089  0.90125604    -0.01700
C308        C  0.17982652  0.36425985  0.89499973    -0.01700
C309        C  0.17148411  0.32489880  0.89810824     0.08200
C310        C  0.13030171  0.31932117  0.89324552    -0.01900
Br311      Br  0.11822925  0.27547100  0.86893134    -0.00400
Br312      Br  0.04202656  0.34195055  0.89548251    -0.00500
Br313      Br  0.22746712  0.37516082  0.87370092    -0.00500
Br314      Br  0.16379953  0.44899084  0.90572029    -0.00500
C315        C  0.35558857  0.34786049  0.90601461    -0.01600
C316        C  0.32960045  0.34853157  0.93054302     0.08100
C317        C  0.33028238  0.37814158  0.95236534    -0.01700
C318        C  0.35787030  0.40582762  0.95032296    -0.01700
C319        C  0.38478799  0.40392342  0.92645161     0.08200
C320        C  0.38355197  0.37509767  0.90427865    -0.01900
Br321      Br  0.42108140  0.37239768  0.87185511    -0.00400
Br322      Br  0.35143434  0.31163182  0.87367476    -0.00500
Br323      Br  0.35841972  0.44692476  0.97982166    -0.00500
Br324      Br  0.29356494  0.38052091  0.98507973    -0.00500
C325        C  0.49871881  0.04009466  0.79086200    -0.01600
C326        C  0.98005951  0.01181953  0.80615661     0.08100
C327        C  0.96072339  0.48374497  0.79013369    -0.01700
C328        C  0.96207501  0.48292871  0.75944279    -0.01700
C329        C  0.98278070  0.50969335  0.74459065     0.08200
C330        C  0.50104633  0.03824143  0.76028009    -0.01900
Br331      Br  0.52977964  0.07432121  0.73948705    -0.00400
Br332      Br  0.51726129  0.08406933  0.81123146    -0.00500
Br333      Br  0.93602228  0.44503489  0.73727270    -0.00500
Br334      Br  0.93291404  0.44567501  0.80966904    -0.00500
C335        C  0.26957568  0.28908281  0.78214536    -0.01600
C336        C  0.24835180  0.26313081  0.79739627     0.08100
C337        C  0.22275476  0.24027049  0.78215466    -0.01700
C338        C  0.22043987  0.24116916  0.75159532    -0.01700
C339        C  0.24345085  0.26572156  0.73602566     0.08200
C340        C  0.26712873  0.29055316  0.75155830    -0.01900
Br341      Br  0.29349433  0.32906374  0.73133976    -0.00400
Br342      Br  0.30006493  0.32403121  0.80357686    -0.00500
Br343      Br  0.18618861  0.20794795  0.73157142    -0.00500
Br344      Br  0.18951584  0.20902617  0.80353684    -0.00500
C345        C  0.41226846  0.09021282  0.60443941    -0.01600
C346        C  0.42826652  0.08017089  0.63273377     0.08100
C347        C  0.41785883  0.10846636  0.65541495    -0.01700
C348        C  0.38283421  0.13707558  0.65298490    -0.01700
C349        C  0.36447514  0.14528742  0.62546703     0.08200
C350        C  0.38091607  0.12297971  0.60088622    -0.01900
Br351      Br  0.36308557  0.13884195  0.56203005    -0.00400
Br352      Br  0.43636313  0.06346323  0.56952000    -0.00500
Br353      Br  0.36055533  0.16344627  0.68838570    -0.00500
Br354      Br  0.45830566  0.12071271  0.68340648    -0.00500
C355        C  0.09850026  0.38466360  0.65354082    -0.01600
C356        C  0.12331698  0.38042819  0.62830850     0.08100
C357        C  0.11360152  0.40731994  0.60525647    -0.01700
C358        C  0.07983879  0.43801043  0.60776055    -0.01700
C359        C  0.05670373  0.44376782  0.63408659     0.08200
C360        C  0.06293937  0.41297926  0.65469962    -0.01900
Br361      Br  0.01836740  0.39894882  0.67773822    -0.00400
Br362      Br  0.11347265  0.35407043  0.68817934    -0.00500
Br363      Br  0.06242006  0.46740680  0.57281434    -0.00500
Br364      Br  0.14535234  0.40263586  0.56954042    -0.00500
C365        C  0.36700882  0.42495338  0.63920092    -0.01600
C366        C  0.39608030  0.42279498  0.61643464     0.08100
C367        C  0.39794448  0.39231734  0.59499335    -0.01700
C368        C  0.37121463  0.36398146  0.59637149    -0.01700
C369        C  0.34265483  0.36614212  0.61915805     0.08200
C370        C  0.33967173  0.39707663  0.64008684    -0.01900
Br371      Br  0.29687571  0.40196815  0.66913519    -0.00400
Br372      Br  0.36609149  0.46388447  0.67039753    -0.00500
Br373      Br  0.37338643  0.32222922  0.56704459    -0.00500
Br374      Br  0.43669221  0.38976522  0.56340872    -0.00500
C375        C  0.11562050  0.15740790  0.59980737    -0.01600
C376        C  0.14577028  0.15684115  0.62157033     0.08100
C377        C  0.14767289  0.12955142  0.64443205    -0.01700
C378        C  0.11948741  0.10240707  0.64530350    -0.01700
C379        C  0.09011749  0.10199308  0.62287271     0.08200
C380        C  0.08806669  0.12977431  0.60026148    -0.01900
Br381      Br  0.04769390  0.12996379  0.56968826    -0.00400
Br382      Br  0.11069023  0.19772139  0.57036478    -0.00500
Br383      Br  0.11912470  0.06813137  0.67833079    -0.00500
Br384      Br  0.18895567  0.12927965  0.67441177    -0.00500
O385        O  0.18815692  0.84883002  0.61015247    -0.78200
C386        C  0.31511540  0.83652982  0.62068289     0.82800
O387        O  0.25019225  0.73237903  0.55060665    -0.79300
O388        O  0.33193671  0.71009599  0.63828246    -0.80800
O389        O  0.20923089  0.76752627  0.69018180    -0.80600
O390        O  0.15282830  0.81377295  0.63806776    -0.79200
Zn391      Zn  0.23746907  0.81069003  0.59745607     1.55700
O392        O  0.27734770  0.76202412  0.69026911    -0.80600
Cd393      Cd  0.19498371  0.76454771  0.64643541     1.59700
Cd394      Cd  0.24898954  0.71555395  0.59425582     1.59600
O395        O  0.16833269  0.71450890  0.64018106    -0.80600
O396        O  0.24350061  0.76330917  0.62069394    -1.91100
Cd397      Cd  0.29227350  0.76136652  0.64650565     1.59900
O398        O  0.20103537  0.68404041  0.60147377    -0.80600
O399        O  0.32240566  0.80883710  0.63909303    -0.79200
C400        C  0.24364310  0.76662252  0.53886897     0.83300
C401        C  0.15659822  0.84591861  0.62530872     0.82900
O402        O  0.28461196  0.83967838  0.60348142    -0.78200
C403        C  0.24326859  0.76516286  0.70374873     0.83800
O404        O  0.23611436  0.79857149  0.55415813    -0.78300
C405        C  0.17355703  0.68655900  0.62117515     0.83900
C406        C  0.33084883  0.67920198  0.62241231     0.84200
O407        O  0.30154862  0.67663876  0.60456749    -0.80700
C408        C  0.02273828  0.97979918  0.63771694     0.30300
C409        C  0.46079780  0.54333513  0.63693842     0.30300
C410        C  0.48433454  0.97365435  0.62028606    -0.05900
C411        C  0.00489942  0.99428787  0.66791540    -0.06700
C412        C  0.03392189  0.51878803  0.62621510    -0.06600
C413        C  0.45247450  0.00601776  0.62008431    -0.05900
C414        C  0.47169595  0.52548932  0.66734607    -0.06700
C415        C  0.00230458  0.55075680  0.62556554    -0.06600
C416        C  0.41629186  0.99046552  0.61727580    -0.32000
N417        N  0.42501079  0.95032068  0.61556216     0.14500
C418        C  0.46609860  0.93988828  0.61774621    -0.32000
H419        H  0.48128610  0.90962527  0.62044607     0.16500
C420        C  0.45793838  0.53166126  0.69564147    -0.30900
N421        N  0.98427628  0.00872080  0.71336775     0.13300
C422        C  0.01368676  0.98672847  0.69690243    -0.30900
C423        C  0.02000521  0.58475578  0.62441190    -0.31200
N424        N  0.06125002  0.57442241  0.62343239     0.13800
H425        H  0.00420390  0.61505205  0.62616052     0.16400
C426        C  0.07022808  0.53430083  0.62526988    -0.31200
H427        H  0.10087026  0.51780406  0.62742465     0.16400
H428        H  0.03967847  0.96707201  0.70558612     0.16400
H429        H  0.38567523  0.00708158  0.61941949     0.16500
H430        H  0.43135855  0.55193266  0.70310160     0.16400
O431        O  0.02757530  0.58462090  0.94111460    -0.78200
C432        C  0.40002535  0.58944098  0.92145234     0.82800
O433        O  0.00504647  0.96715959  0.98857693    -0.79300
O434        O  0.40712170  0.96041360  0.90649925    -0.80800
O435        O  0.01615381  0.51325347  0.85128705    -0.80600
O436        O  0.06680529  0.55306887  0.90625338    -0.79200
Zn437      Zn  0.98226516  0.55219121  0.94854303     1.55700
O438        O  0.44992651  0.50712001  0.85296097    -0.80600
Cd439      Cd  0.03476877  0.50740210  0.89462403     1.59700
Cd440      Cd  0.99658308  0.95629458  0.94463726     1.59600
O441        O  0.07388420  0.95445828  0.89631793    -0.80600
O442        O  0.98784445  0.50651773  0.92179644    -1.91100
Cd443      Cd  0.43764695  0.50731414  0.89725952     1.59900
O444        O  0.04770179  0.91872416  0.92975886    -0.80600
O445        O  0.39845925  0.55889965  0.90534203    -0.79200
C446        C  0.99890616  0.49949542  0.00345628     0.83300
C447        C  0.05872140  0.58190434  0.92447669     0.82900
O448        O  0.42947253  0.59054208  0.93956087    -0.78200
C449        C  0.98204994  0.51086155  0.83856136     0.83800
O450        O  0.98806975  0.53323028  0.99133453    -0.78300
C451        C  0.07480954  0.92276428  0.91079336     0.83900
C452        C  0.41424299  0.93212762  0.92450131     0.84200
O453        O  0.44612119  0.92702582  0.94063473    -0.80700
C454        C  0.26899470  0.72650599  0.90556120     0.30300
C455        C  0.20606624  0.78964426  0.90237792     0.30300
C456        C  0.27571478  0.76464880  0.92231810    -0.05900
C457        C  0.25899291  0.74362969  0.87468876    -0.06700
C458        C  0.22701863  0.71932131  0.91671687    -0.06600
C459        C  0.24326581  0.79661721  0.92168245    -0.05900
C460        C  0.22621015  0.77474965  0.87359373    -0.06700
C461        C  0.19514555  0.75122796  0.91579425    -0.06600
C462        C  0.25994503  0.83017148  0.92977964    -0.32000
N463        N  0.30122107  0.82036612  0.93246679     0.14500
C464        C  0.31095766  0.78056895  0.92825740    -0.32000
H465        H  0.34225611  0.76477154  0.92610375     0.16500
C466        C  0.21988082  0.78572649  0.84516977    -0.30900
N467        N  0.24868322  0.76342530  0.82865269     0.13300
C468        C  0.27355707  0.73846102  0.84627142    -0.30900
C469        C  0.16035548  0.73700962  0.92521691    -0.31200
N470        N  0.16978787  0.69728366  0.92944030     0.13800
H471        H  0.12949330  0.75331006  0.92657792     0.16400
C472        C  0.21060759  0.68630493  0.92485353    -0.31200
H473        H  0.22625075  0.65593636  0.92460116     0.16400
H474        H  0.29969739  0.71766803  0.83871681     0.16400
H475        H  0.24434893  0.86020648  0.93056200     0.16500
H476        H  0.19569116  0.80790973  0.83692006     0.16400
O477        O  0.07790680  0.91092324  0.10161008    -0.78200
C478        C  0.44609997  0.91212087  0.11208704     0.82800
O479        O  0.49560557  0.52991756  0.05037844    -0.79300
O480        O  0.42324100  0.54116502  0.14082960    -0.80800
O481        O  0.04309448  0.50421851  0.18707933    -0.80600
O482        O  0.10175744  0.94272809  0.13963485    -0.79200
Zn483      Zn  0.52267214  0.94573967  0.09065113     1.55700
O484        O  0.48042511  0.48687558  0.18657723    -0.80600
Cd485      Cd  0.06126058  0.49568454  0.14335424     1.59700
Cd486      Cd  0.50288170  0.54262558  0.09413010     1.59600
O487        O  0.09156226  0.54254994  0.13174066    -0.80600
O488        O  0.51315309  0.49233135  0.11708726    -1.91100
Cd489      Cd  0.46468491  0.48909682  0.14265145     1.59900
O490        O  0.05183313  0.57501589  0.09770074    -0.80600
O491        O  0.43651130  0.94043349  0.13064234    -0.79200
C492        C  0.50441959  0.49774092  0.03551958     0.83300
C493        C  0.10425538  0.91288051  0.12206989     0.82900
O494        O  0.47785128  0.91052008  0.09598189    -0.78200
C495        C  0.51096503  0.49723503  0.20034426     0.83800
O496        O  0.51754915  0.96441556  0.04765078    -0.78300
C497        C  0.08381435  0.57102149  0.11382318     0.83900
C498        C  0.42291362  0.57401186  0.12782808     0.84200
O499        O  0.45052016  0.57889835  0.10938361    -0.80700
C500        C  0.23521742  0.77745248  0.14083413     0.30300
C501        C  0.29667205  0.71199152  0.14452946     0.30300
C502        C  0.27563946  0.78007130  0.12399570    -0.05900
C503        C  0.25109680  0.76568449  0.17139483    -0.06700
C504        C  0.22459394  0.73749779  0.12823935    -0.06600
C505        C  0.30684934  0.74714156  0.12612047    -0.05900
C506        C  0.28183403  0.73279396  0.17330315    -0.06700
C507        C  0.25574918  0.70452836  0.12987662    -0.06600
C508        C  0.34193990  0.75861181  0.11445886    -0.32000
N509        N  0.33359029  0.79723293  0.10631870     0.14500
C510        C  0.29284540  0.80957942  0.11030291    -0.32000
H511        H  0.27814563  0.83958296  0.10618282     0.16500
C512        C  0.29006414  0.72669953  0.20247206    -0.30900
N513        N  0.26516424  0.75485346  0.21810970     0.13300
C514        C  0.24137807  0.77879733  0.19937659    -0.30900
C515        C  0.23903461  0.67192396  0.11944173    -0.31200
N516        N  0.19869003  0.68328351  0.11348168     0.13800
H517        H  0.25392737  0.64138054  0.11805935     0.16400
C518        C  0.18995053  0.72333962  0.11755735    -0.31200
H519        H  0.15963400  0.74020572  0.11486523     0.16400
H520        H  0.21815586  0.80345388  0.20575477     0.16400
H521        H  0.37250209  0.74182601  0.11464446     0.16500
H522        H  0.31196454  0.70320415  0.21169995     0.16400
C523        C  0.46595091  0.55547518  0.39999545     0.30300
C524        C  0.03104863  0.99400553  0.40355918     0.30300
C525        C  0.45777204  0.51827093  0.41699037    -0.05900
C526        C  0.48322765  0.53694318  0.37072410    -0.06700
C527        C  0.00518040  0.56493875  0.41596394    -0.06600
C528        C  0.49054850  0.98685366  0.41765323    -0.05900
C529        C  0.01568193  0.00536858  0.37254868    -0.06700
C530        C  0.03792867  0.53381125  0.41699955    -0.06600
C531        C  0.47478685  0.95315399  0.42523396    -0.32000
N532        N  0.43423994  0.96328084  0.43106495     0.14500
C533        C  0.42381232  0.00300871  0.42708122    -0.32000
H534        H  0.39273241  0.51849047  0.42890777     0.16500
C535        C  0.02372788  0.99108753  0.34450488    -0.30900
N536        N  0.49913999  0.51411544  0.32564911     0.13300
C537        C  0.47387457  0.54194651  0.34147639    -0.30900
C538        C  0.07234067  0.54927939  0.42573409    -0.31200
N539        N  0.06148181  0.58876139  0.43088302     0.13800
H540        H  0.10364550  0.53395210  0.42524033     0.16400
C541        C  0.02050298  0.59835476  0.42628251    -0.31200
H542        H  0.00438406  0.62844681  0.42789203     0.16400
H543        H  0.45031099  0.56400812  0.33238982     0.16400
H544        H  0.49071413  0.92287835  0.42382146     0.16500
H545        H  0.04598542  0.96568015  0.33807249     0.16400
O546        O  0.20666765  0.69554073  0.44153044    -0.78200
C547        C  0.33450833  0.68842934  0.41791211     0.82800
O548        O  0.23831449  0.80374918  0.49508437    -0.79300
O549        O  0.32937994  0.81865328  0.41330352    -0.80800
O550        O  0.21841262  0.76580281  0.35527907    -0.80600
O551        O  0.16562583  0.73185312  0.41014678    -0.79200
Zn552      Zn  0.25490767  0.72441347  0.44833087     1.55700
O553        O  0.28300178  0.77802741  0.35688081    -0.80600
Cd554      Cd  0.20006546  0.77509626  0.39857472     1.59700
Cd555      Cd  0.24101313  0.82119926  0.45164475     1.59600
O556        O  0.16330040  0.83016322  0.40130994    -0.80600
O557        O  0.24821594  0.77298363  0.42543126    -1.91100
Cd558      Cd  0.29733606  0.77340378  0.40070615     1.59900
O559        O  0.18811590  0.85933001  0.44012408    -0.80600
O560        O  0.33471158  0.71966059  0.40309958    -0.79200
C561        C  0.24535731  0.76948861  0.50681910     0.83300
C562        C  0.17358801  0.70198928  0.42675614     0.82900
O563        O  0.30662857  0.68605185  0.43675254    -0.78200
C564        C  0.25166783  0.77066318  0.34260517     0.83800
O565        O  0.25407261  0.73753957  0.49160800    -0.78300
C566        C  0.16226451  0.85929129  0.41931070     0.83900
C567        C  0.32144503  0.84881056  0.43038110     0.84200
O568        O  0.28922096  0.85398751  0.44619976    -0.80700
C569        C  0.10343538  0.62878920  0.40319810    -0.01600
C570        C  0.08968632  0.61697771  0.43018177     0.08100
C571        C  0.10342702  0.63285759  0.45616268    -0.01700
C572        C  0.13090659  0.66083100  0.45531929    -0.01700
C573        C  0.14419899  0.67327287  0.42819171     0.08200
C574        C  0.13020913  0.65714833  0.40213839    -0.01900
Br575      Br  0.14903369  0.67211097  0.36475797    -0.00400
Br576      Br  0.08637097  0.60515677  0.36758950    -0.00500
Br577      Br  0.14879575  0.68297415  0.49129878    -0.00500
Br578      Br  0.08438828  0.61549586  0.49257843    -0.00500
C579        C  0.07366107  0.94153933  0.43569286    -0.01600
C580        C  0.06816232  0.96109385  0.40843487     0.08100
C581        C  0.10091871  0.95280187  0.38816400    -0.01700
C582        C  0.13001628  0.91803766  0.39080567    -0.01700
C583        C  0.13036817  0.89449184  0.41576204     0.08200
C584        C  0.10312264  0.90723622  0.43867290    -0.01900
Br585      Br  0.10549933  0.87711474  0.47410586    -0.00400
Br586      Br  0.04721465  0.96483571  0.47090331    -0.00500
Br587      Br  0.17144661  0.90433047  0.36115606    -0.00500
Br588      Br  0.11467571  0.99353958  0.36274652    -0.00500
C589        C  0.38832465  0.58472196  0.39613164    -0.01600
C590        C  0.42999815  0.59037055  0.39718463     0.08100
C591        C  0.43736383  0.63010914  0.39626141    -0.01700
C592        C  0.40770250  0.66114567  0.40659314    -0.01700
C593        C  0.36720591  0.65411750  0.41185122     0.08200
C594        C  0.35716690  0.61590063  0.40508148    -0.01900
Br595      Br  0.30077407  0.60658269  0.40582727    -0.00400
Br596      Br  0.37304739  0.54089178  0.37329935    -0.00500
Br597      Br  0.42407859  0.71264964  0.41420191    -0.00500
Br598      Br  0.47979042  0.64370236  0.37125259    -0.00500
C599        C  0.35823255  0.89945360  0.45710371    -0.01600
C600        C  0.35004287  0.87906038  0.43094002     0.08100
C601        C  0.36927526  0.88816244  0.40480812    -0.01700
C602        C  0.39715852  0.91568008  0.40517540    -0.01700
C603        C  0.40544253  0.93539780  0.43120053     0.08200
C604        C  0.38541221  0.92790952  0.45696988    -0.01900
Br605      Br  0.39616560  0.95668480  0.49199303    -0.00400
Br606      Br  0.33440188  0.88764128  0.49366943    -0.00500
Br607      Br  0.42342340  0.92765519  0.36962883    -0.00500
Br608      Br  0.35618680  0.86553688  0.36758691    -0.00500
C609        C  0.27303652  0.79232564  0.26369640    -0.01600
C610        C  0.26284636  0.75819183  0.24932900     0.08100
C611        C  0.24904117  0.72808107  0.26558225    -0.01700
C612        C  0.24638940  0.73168150  0.29613059    -0.01700
C613        C  0.25461701  0.76678831  0.31045082     0.08200
C614        C  0.26765052  0.79727612  0.29399986    -0.01900
Br615      Br  0.27623672  0.84673676  0.31255597    -0.00800
Br616      Br  0.29617694  0.83135372  0.24180976    -0.00500
Br617      Br  0.23468070  0.68711327  0.31830786    -0.00500
Br618      Br  0.23213125  0.68271181  0.24581833    -0.00500
C619        C  0.50138766  0.46920037  0.24970717    -0.01600
C620        C  0.50856284  0.50155600  0.23265708     0.08100
C621        C  0.01185134  0.53838286  0.24657256    -0.01700
C622        C  0.01010835  0.54214061  0.27723760    -0.01700
C623        C  0.50129751  0.51023998  0.29421517     0.08200
C624        C  0.49667069  0.47383149  0.28016322    -0.01900
Br625      Br  0.48252967  0.43043274  0.30243500    -0.00400
Br626      Br  0.49953956  0.41788405  0.23144220    -0.00500
Br627      Br  0.02300826  0.58994569  0.29602489    -0.00500
Br628      Br  0.01536732  0.58467808  0.22364812    -0.00500
C629        C  0.14927239  0.64803542  0.13887648    -0.01600
C630        C  0.16870836  0.65635399  0.11288141     0.08100
C631        C  0.16035032  0.63639218  0.08695091    -0.01700
C632        C  0.13246579  0.60850926  0.08692504    -0.01700
C633        C  0.11213804  0.60114451  0.11285747     0.08200
C634        C  0.12014176  0.62173254  0.13866385    -0.01900
Br635      Br  0.09008412  0.61508913  0.17374213    -0.00400
Br636      Br  0.16506263  0.66989570  0.17540075    -0.00500
Br637      Br  0.12433172  0.57852736  0.05197765    -0.00500
Br638      Br  0.18877481  0.64646795  0.05203697    -0.00500
C639        C  0.12737886  0.84212854  0.13660579    -0.01600
C640        C  0.13752725  0.87870886  0.12714694     0.08100
C641        C  0.17890389  0.88478813  0.12921575    -0.01700
C642        C  0.20941716  0.85381030  0.13852407    -0.01700
C643        C  0.20063769  0.81437730  0.14046795     0.08200
C644        C  0.15868429  0.81112426  0.14496326    -0.01900
Br645      Br  0.14404120  0.77211082  0.17126065    -0.00400
Br646      Br  0.07040465  0.83583095  0.14105460    -0.00500
Br647      Br  0.25508093  0.86928569  0.16003204    -0.00500
Br648      Br  0.19424535  0.93568399  0.11991198    -0.00500
C649        C  0.40303203  0.64569555  0.14268948    -0.01600
C650        C  0.39109128  0.60834524  0.13580737     0.08100
C651        C  0.34999525  0.60329895  0.14131212    -0.01700
C652        C  0.32119894  0.63627084  0.15013540    -0.01700
C653        C  0.33075019  0.67525561  0.14789019     0.08200
C654        C  0.37299728  0.67851871  0.15009097    -0.01900
Br655      Br  0.39021056  0.72174581  0.17206911    -0.00400
Br656      Br  0.46065325  0.65113963  0.14530261    -0.00500
Br657      Br  0.27694618  0.62685832  0.17523703    -0.00500
Br658      Br  0.33189512  0.55211599  0.13664225    -0.00500
C659        C  0.40456048  0.86818606  0.08255082    -0.01600
C660        C  0.41960975  0.88020347  0.10976540     0.08100
C661        C  0.40729558  0.86303904  0.13539442    -0.01700
C662        C  0.37821956  0.83671588  0.13410814    -0.01700
C663        C  0.36353384  0.82429066  0.10705599     0.08200
C664        C  0.37702351  0.83990817  0.08128999    -0.01900
Br665      Br  0.35640087  0.82314616  0.04458072    -0.00400
Br666      Br  0.41963977  0.89179467  0.04708879    -0.00500
Br667      Br  0.35615009  0.82040411  0.16987293    -0.00500
Br668      Br  0.43179501  0.87369940  0.17249013    -0.00500
C669        C  0.09285521  0.63310886  0.95260059    -0.01600
C670        C  0.08585618  0.61327979  0.92592575     0.08100
C671        C  0.10467443  0.62429026  0.90025215    -0.01700
C672        C  0.13225835  0.65194051  0.90169789    -0.01700
C673        C  0.14035073  0.67015435  0.92833667     0.08200
C674        C  0.11930183  0.66214053  0.95344495    -0.01900
Br675      Br  0.12668126  0.69190411  0.98862276    -0.00400
Br676      Br  0.06818080  0.62022903  0.98853531    -0.00500
Br677      Br  0.15803277  0.66634806  0.86681326    -0.00500
Br678      Br  0.09126729  0.60437465  0.86233707    -0.00500
C679        C  0.35219008  0.64892583  0.94210792    -0.01600
C680        C  0.36686527  0.62437921  0.91807211     0.08100
C681        C  0.34695498  0.63133686  0.89079794    -0.01700
C682        C  0.31210468  0.66045628  0.88823617    -0.01700
C683        C  0.30237295  0.68989870  0.91029009     0.08200
C684        C  0.32016549  0.68131127  0.93837353    -0.01900
Br685      Br  0.29720693  0.70887355  0.97329125    -0.00400
Br686      Br  0.37366825  0.63701747  0.98081362    -0.00500
Br687      Br  0.27165830  0.64955578  0.85978855    -0.00500
Br688      Br  0.36721889  0.60293213  0.85555825    -0.00500
C689        C  0.09842338  0.85096091  0.89882678    -0.01600
C690        C  0.10798553  0.88940330  0.90487423     0.08100
C691        C  0.14886856  0.89635978  0.90127196    -0.01700
C692        C  0.17982265  0.86426166  0.89501555    -0.01700
C693        C  0.17148256  0.82489917  0.89811982     0.08200
C694        C  0.13030135  0.81931884  0.89325220    -0.01900
Br695      Br  0.11823459  0.77546213  0.86894228    -0.00400
Br696      Br  0.04202397  0.84194888  0.89547144    -0.00500
Br697      Br  0.22746163  0.87517050  0.87371851    -0.00500
Br698      Br  0.16379089  0.94898925  0.90574873    -0.00500
C699        C  0.35557233  0.84787800  0.90601876    -0.01600
C700        C  0.32959408  0.84854248  0.93055186     0.08100
C701        C  0.33028256  0.87814810  0.95237657    -0.01700
C702        C  0.35786972  0.90583457  0.95033247    -0.01700
C703        C  0.38478099  0.90393357  0.92645763     0.08200
C704        C  0.38353638  0.87511395  0.90428159    -0.01900
Br705      Br  0.42105695  0.87241849  0.87185301    -0.00400
Br706      Br  0.35140381  0.81165945  0.87367509    -0.00500
Br707      Br  0.35842562  0.94692886  0.97983268    -0.00500
Br708      Br  0.29357540  0.88052059  0.98509622    -0.00500
C709        C  0.49872947  0.54008773  0.79086072    -0.01600
C710        C  0.98005968  0.51181616  0.80615680     0.08100
C711        C  0.96072325  0.98374811  0.79013386    -0.01700
C712        C  0.96207119  0.98293402  0.75944301    -0.01700
C713        C  0.98277546  0.00969945  0.74459068     0.08200
C714        C  0.50105666  0.53823535  0.76027877    -0.01900
Br715      Br  0.52979161  0.57431414  0.73948599    -0.00400
Br716      Br  0.51728362  0.58405617  0.81123051    -0.00500
Br717      Br  0.93601389  0.94504318  0.73727320    -0.00500
Br718      Br  0.93291838  0.94567535  0.80966967    -0.00500
C719        C  0.26957348  0.78910665  0.78214871    -0.01600
C720        C  0.24834905  0.76315635  0.79740115     0.08100
C721        C  0.22275270  0.74029438  0.78216038    -0.01700
C722        C  0.22044348  0.74118551  0.75160062    -0.01700
C723        C  0.24345823  0.76573298  0.73602938     0.08200
C724        C  0.26713289  0.79056887  0.75156094    -0.01900
Br725      Br  0.29350273  0.82907397  0.73133950    -0.00400
Br726      Br  0.30005045  0.82406700  0.80357873    -0.00500
Br727      Br  0.18619491  0.70796015  0.73157823    -0.00500
Br728      Br  0.18950461  0.70906033  0.80354410    -0.00500
C729        C  0.41226180  0.59020900  0.60444004    -0.01600
C730        C  0.42826448  0.58017040  0.63273383     0.08100
C731        C  0.41786314  0.60846992  0.65541354    -0.01700
C732        C  0.38284092  0.63708236  0.65298393    -0.01700
C733        C  0.36447586  0.64528936  0.62546725     0.08200
C734        C  0.38090997  0.62297615  0.60088698    -0.01900
Br735      Br  0.36307122  0.63883113  0.56203088    -0.00400
Br736      Br  0.43635019  0.56345522  0.56952002    -0.00500
Br737      Br  0.36057355  0.66346480  0.68838400    -0.00500
Br738      Br  0.45831276  0.62071044  0.68340520    -0.00500
C739        C  0.09849584  0.88465863  0.65354371    -0.01600
C740        C  0.12331734  0.88042644  0.62831353     0.08100
C741        C  0.11360717  0.90732273  0.60526350    -0.01700
C742        C  0.07984212  0.93801074  0.60776579    -0.01700
C743        C  0.05670238  0.94376548  0.63408987     0.08200
C744        C  0.06293549  0.91297553  0.65470200    -0.01900
Br745      Br  0.01836258  0.89894910  0.67774170    -0.00400
Br746      Br  0.11346262  0.85406156  0.68818142    -0.00500
Br747      Br  0.06242778  0.96740758  0.57281879    -0.00500
Br748      Br  0.14537055  0.90265221  0.56955309    -0.00500
C749        C  0.36700390  0.92496141  0.63919643    -0.01600
C750        C  0.39608120  0.92279591  0.61643326     0.08100
C751        C  0.39795350  0.89230862  0.59499858    -0.01700
C752        C  0.37122551  0.86397151  0.59637990    -0.01700
C753        C  0.34265487  0.86614416  0.61916004     0.08200
C754        C  0.33966509  0.89708625  0.64008296    -0.01900
Br755      Br  0.29686232  0.90198598  0.66912670    -0.00400
Br756      Br  0.36608385  0.96389660  0.67039057    -0.00500
Br757      Br  0.37341733  0.82219800  0.56706784    -0.00500
Br758      Br  0.43671024  0.88974329  0.56341863    -0.00500
C759        C  0.11561796  0.65741365  0.59980640    -0.01600
C760        C  0.14576628  0.65684638  0.62157064     0.08100
C761        C  0.14766396  0.62955886  0.64443354    -0.01700
C762        C  0.11947747  0.60241538  0.64530371    -0.01700
C763        C  0.09010963  0.60200130  0.62287163     0.08200
C764        C  0.08805991  0.62978377  0.60026120    -0.01900
Br765      Br  0.04768058  0.62998249  0.56969155    -0.00400
Br766      Br  0.11069638  0.69772209  0.57036040    -0.00500
Br767      Br  0.11910946  0.56814140  0.67833142    -0.00500
Br768      Br  0.18894236  0.62928789  0.67441632    -0.00500
O769        O  0.68815807  0.34883298  0.61014960    -0.78200
C770        C  0.81511776  0.33652563  0.62068055     0.82800
O771        O  0.75018730  0.23237935  0.55060466    -0.79300
O772        O  0.83193312  0.21009208  0.63828496    -0.80800
O773        O  0.70922337  0.26752419  0.69017878    -0.80600
O774        O  0.65282582  0.31377446  0.63806171    -0.79200
Zn775      Zn  0.73746917  0.31068985  0.59745411     1.55700
O776        O  0.77734036  0.26202127  0.69026659    -0.80600
Cd777      Cd  0.69497965  0.26454846  0.64643152     1.59700
Cd778      Cd  0.74899025  0.21555305  0.59425385     1.59600
O779        O  0.66832982  0.21450929  0.64017698    -0.80600
O780        O  0.74349895  0.26330851  0.62069186    -1.91100
Cd781      Cd  0.79227071  0.26136459  0.64650465     1.59900
O782        O  0.70104024  0.18403557  0.60147439    -0.80600
O783        O  0.82240569  0.30883417  0.63909206    -0.79200
C784        C  0.74363864  0.26662300  0.53886713     0.83300
C785        C  0.65659755  0.34592055  0.62530374     0.82900
O786        O  0.78461486  0.33967430  0.60347861    -0.78200
C787        C  0.74326112  0.26515891  0.70374583     0.83800
O788        O  0.73611235  0.29857198  0.55415644    -0.78300
C789        C  0.67355936  0.18655588  0.62117402     0.83900
C790        C  0.83084889  0.17920041  0.62241154     0.84200
O791        O  0.80155217  0.17663960  0.60456323    -0.80700
C792        C  0.52273996  0.47980208  0.63771329     0.30300
C793        C  0.96079900  0.04333481  0.63693869     0.30300
C794        C  0.98433355  0.47365422  0.62028593    -0.05900
C795        C  0.50490475  0.49429059  0.66791289    -0.06700
C796        C  0.53392365  0.01878631  0.62621969    -0.06600
C797        C  0.95247280  0.50601667  0.62008604    -0.05900
C798        C  0.97169215  0.02548820  0.66734682    -0.06700
C799        C  0.50230771  0.05075608  0.62556819    -0.06600
C800        C  0.91629056  0.49046387  0.61727804    -0.32000
N801        N  0.92501060  0.45031926  0.61556237     0.14500
C802        C  0.96609868  0.43988748  0.61774506    -0.32000
H803        H  0.98128724  0.40962421  0.62044289     0.16500
C804        C  0.95793402  0.03166355  0.69564183    -0.30900
N805        N  0.48428215  0.50871800  0.71336616     0.13300
C806        C  0.51369346  0.48672900  0.69689952    -0.30900
C807        C  0.52001069  0.08475373  0.62441518    -0.31200
N808        N  0.56125550  0.07441799  0.62343750     0.13800
H809        H  0.50421077  0.11505075  0.62616188     0.16400
C810        C  0.57023116  0.03429658  0.62527593    -0.31200
H811        H  0.60087233  0.01779820  0.62743097     0.16400
H812        H  0.53968598  0.46707256  0.70558203     0.16400
H813        H  0.88567378  0.50707897  0.61942307     0.16500
H814        H  0.93135523  0.05193698  0.70310096     0.16400
O815        O  0.52756947  0.08462092  0.94111155    -0.78200
C816        C  0.90002069  0.08943745  0.92145282     0.82800
O817        O  0.50504480  0.46715785  0.98857482    -0.79300
O818        O  0.90712146  0.46041198  0.90650067    -0.80800
O819        O  0.51615452  0.01325422  0.85128655    -0.80600
O820        O  0.56680435  0.05306693  0.90625328    -0.79200
Zn821      Zn  0.48226253  0.05219011  0.94854314     1.55700
O822        O  0.94992626  0.00712333  0.85296238    -0.80600
Cd823      Cd  0.53476778  0.00740029  0.89462409     1.59700
Cd824      Cd  0.49658680  0.45629258  0.94463418     1.59600
O825        O  0.57388902  0.45446389  0.89631504    -0.80600
O826        O  0.48784386  0.00651725  0.92179683    -1.91100
Cd827      Cd  0.93764858  0.00731447  0.89726013     1.59900
O828        O  0.54771060  0.41872778  0.92975631    -0.80600
O829        O  0.89845783  0.05889545  0.90534314    -0.79200
C830        C  0.49890848  0.99949484  0.00345739     0.83300
C831        C  0.55871651  0.08190433  0.92447461     0.82900
O832        O  0.92946798  0.09054119  0.93956095    -0.78200
C833        C  0.48205022  0.01086312  0.83856122     0.83800
O834        O  0.48807015  0.03322956  0.99133561    -0.78300
C835        C  0.57481700  0.42276931  0.91079003     0.83900
C836        C  0.91424920  0.43212035  0.92449787     0.84200
O837        O  0.94613072  0.42701678  0.94062807    -0.80700
C838        C  0.76898714  0.22649969  0.90556006     0.30300
C839        C  0.70606528  0.28964337  0.90237037     0.30300
C840        C  0.77571092  0.26464377  0.92231360    -0.05900
C841        C  0.75898887  0.24361890  0.87468611    -0.06700
C842        C  0.72700912  0.21932143  0.91671573    -0.06600
C843        C  0.74326518  0.29661511  0.92167483    -0.05900
C844        C  0.72620973  0.27474226  0.87358787    -0.06700
C845        C  0.69513882  0.25123054  0.91578919    -0.06600
C846        C  0.75994913  0.33016825  0.92976759    -0.32000
N847        N  0.80122454  0.32035882  0.93245610     0.14500
C848        C  0.81095647  0.28056062  0.92825072    -0.32000
H849        H  0.84225319  0.26475917  0.92610017     0.16500
C850        C  0.71988339  0.28571442  0.84516293    -0.30900
N851        N  0.74868361  0.26340624  0.82864829     0.13300
C852        C  0.77355341  0.23844195  0.84626937    -0.30900
C853        C  0.66034502  0.23701599  0.92520913    -0.31200
N854        N  0.66977349  0.19729041  0.92943554     0.13800
H855        H  0.62948338  0.25331836  0.92656641     0.16400
C856        C  0.71059344  0.18630792  0.92485257    -0.31200
H857        H  0.72623389  0.15593835  0.92460260     0.16400
H858        H  0.79969074  0.21764350  0.83871692     0.16400
H859        H  0.74435607  0.36020488  0.93054729     0.16500
H860        H  0.69569737  0.30789954  0.83691085     0.16400
O861        O  0.57790662  0.41092323  0.10160630    -0.78200
C862        C  0.94609897  0.41212256  0.11208872     0.82800
O863        O  0.99560173  0.02991745  0.05038110    -0.79300
O864        O  0.92323815  0.04116157  0.14083368    -0.80800
O865        O  0.54308993  0.00422013  0.18708369    -0.80600
O866        O  0.60175973  0.44272795  0.13963020    -0.79200
Zn867      Zn  0.02267033  0.44574086  0.09064918     1.55700
O868        O  0.98042554  0.98687366  0.18658315    -0.80600
Cd869      Cd  0.56125503  0.99568478  0.14335834     1.59700
Cd870      Cd  0.00287660  0.04262310  0.09413294     1.59600
O871        O  0.59155447  0.04254887  0.13174144    -0.80600
O872        O  0.01315069  0.99232983  0.11709070    -1.91100
Cd873      Cd  0.96468455  0.98909500  0.14265657     1.59900
O874        O  0.55182359  0.07501243  0.09770126    -0.80600
O875        O  0.93651005  0.44043742  0.13064222    -0.79200
C876        C  0.00442042  0.99774203  0.03552172     0.83300
C877        C  0.60425620  0.41288004  0.12206549     0.82900
O878        O  0.97784982  0.41052098  0.09598303    -0.78200
C879        C  0.01096520  0.99723591  0.20034906     0.83800
O880        O  0.01754322  0.46441600  0.04764958    -0.78300
C881        C  0.58380530  0.07101895  0.11382296     0.83900
C882        C  0.92290881  0.07400754  0.12783057     0.84200
O883        O  0.95051473  0.07889460  0.10938588    -0.80700
C884        C  0.73521297  0.27744666  0.14083009     0.30300
C885        C  0.79666538  0.21198436  0.14452910     0.30300
C886        C  0.77563654  0.28006346  0.12399269    -0.05900
C887        C  0.75109044  0.26568049  0.17139144    -0.06700
C888        C  0.72458854  0.23749169  0.12823660    -0.06600
C889        C  0.80684612  0.24713358  0.12612014    -0.05900
C890        C  0.78182623  0.23278905  0.17330150    -0.06700
C891        C  0.75574268  0.20452163  0.12987550    -0.06600
C892        C  0.84194113  0.25860749  0.11446772    -0.32000
N893        N  0.83359261  0.29722886  0.10632757     0.14500
C894        C  0.79284615  0.30957343  0.11030496    -0.32000
H895        H  0.77814668  0.33957673  0.10618382     0.16500
C896        C  0.79005641  0.22669780  0.20247046    -0.30900
N897        N  0.76515848  0.25485488  0.21810653     0.13300
C898        C  0.74137280  0.27879741  0.19937244    -0.30900
C899        C  0.73902689  0.17191718  0.11944172    -0.31200
N900        N  0.69868254  0.18327741  0.11348160     0.13800
H901        H  0.75391856  0.14137369  0.11805911     0.16400
C902        C  0.68994450  0.22333379  0.11755534    -0.31200
H903        H  0.65962839  0.24020063  0.11486186     0.16400
H904        H  0.71815172  0.30345552  0.20574946     0.16400
H905        H  0.87250419  0.24182353  0.11465936     0.16500
H906        H  0.81195554  0.20320234  0.21169964     0.16400
C907        C  0.96595057  0.05547050  0.40000108     0.30300
C908        C  0.53103943  0.49400000  0.40355119     0.30300
C909        C  0.95777700  0.01826197  0.41699296    -0.05900
C910        C  0.98323512  0.03694455  0.37073041    -0.06700
C911        C  0.50517545  0.06493809  0.41597268    -0.06600
C912        C  0.99053657  0.48685989  0.41764485    -0.05900
C913        C  0.51566842  0.50536123  0.37254174    -0.06700
C914        C  0.53792890  0.03381522  0.41701051    -0.06600
C915        C  0.97476362  0.45316151  0.42521344    -0.32000
N916        N  0.93421754  0.46329536  0.43104361     0.14500
C917        C  0.92379834  0.50302514  0.42706525    -0.32000
H918        H  0.89274285  0.01847448  0.42892201     0.16500
C919        C  0.52370589  0.49107331  0.34449883    -0.30900
N920        N  0.99915948  0.01412718  0.32565495     0.13300
C921        C  0.97388518  0.04195022  0.34148250    -0.30900
C922        C  0.57233953  0.04929216  0.42573521    -0.31200
N923        N  0.56147562  0.08877484  0.43087605     0.13800
H924        H  0.60364623  0.03396944  0.42523970     0.16400
C925        C  0.52049565  0.09836195  0.42627832    -0.31200
H926        H  0.50437430  0.12845369  0.42787985     0.16400
H927        H  0.95031607  0.06400647  0.33239609     0.16400
H928        H  0.99068381  0.42288370  0.42379537     0.16500
H929        H  0.54595902  0.46566212  0.33806685     0.16400
O930        O  0.70666654  0.19554298  0.44152462    -0.78200
C931        C  0.83450601  0.18842306  0.41791450     0.82800
O932        O  0.73831135  0.30374982  0.49508239    -0.79300
O933        O  0.82938009  0.31865240  0.41330048    -0.80800
O934        O  0.71841717  0.26579940  0.35527587    -0.80600
O935        O  0.66562680  0.23185938  0.41014198    -0.79200
Zn936      Zn  0.75490590  0.22441340  0.44832925     1.55700
O937        O  0.78300723  0.27802056  0.35687827    -0.80600
Cd938      Cd  0.70007004  0.27509757  0.39857027     1.59700
Cd939      Cd  0.74101134  0.32119898  0.45164229     1.59600
O940        O  0.66330679  0.33016474  0.40130128    -0.80600
O941        O  0.74821773  0.27298301  0.42542902    -1.91100
Cd942      Cd  0.79733903  0.27339926  0.40070469     1.59900
O943        O  0.68811369  0.35932997  0.44011939    -0.80600
O944        O  0.83471048  0.21965329  0.40310084    -0.79200
C945        C  0.74535207  0.26948918  0.50681724     0.83300
C946        C  0.67358745  0.20199433  0.42675004     0.82900
O947        O  0.80662603  0.18604850  0.43675523    -0.78200
C948        C  0.75167293  0.27065781  0.34260229     0.83800
O949        O  0.75406604  0.23753996  0.49160623    -0.78300
C950        C  0.66226642  0.35929177  0.41930317     0.83900
C951        C  0.82144223  0.34881059  0.43037727     0.84200
O952        O  0.78921918  0.35398637  0.44619703    -0.80700
C953        C  0.60342534  0.12880492  0.40318991    -0.01600
C954        C  0.58967712  0.11699311  0.43017365     0.08100
C955        C  0.60342301  0.13286709  0.45615473    -0.01700
C956        C  0.63090695  0.16083576  0.45531200    -0.01700
C957        C  0.64419628  0.17328080  0.42818455     0.08200
C958        C  0.63020082  0.15716245  0.40213059    -0.01900
Br959      Br  0.64902032  0.17213051  0.36474998    -0.00400
Br960      Br  0.58636218  0.10517084  0.36758157    -0.00500
Br961      Br  0.64880764  0.18296600  0.49129286    -0.00500
Br962      Br  0.58438618  0.11550193  0.49257004    -0.00500
C963        C  0.57364492  0.44152237  0.43568059    -0.01600
C964        C  0.56815043  0.46108400  0.40842483     0.08100
C965        C  0.60091210  0.45279945  0.38815677    -0.01700
C966        C  0.63001779  0.41804100  0.39080054    -0.01700
C967        C  0.63036690  0.39448965  0.41575369     0.08200
C968        C  0.60311036  0.40722218  0.43866017    -0.01900
Br969      Br  0.60547899  0.37708838  0.47408715    -0.00400
Br970      Br  0.54719199  0.46480720  0.47089227    -0.00500
Br971      Br  0.67146217  0.40434773  0.36115861    -0.00500
Br972      Br  0.61465441  0.49353521  0.36273157    -0.00500
C973        C  0.88832069  0.08470886  0.39614618    -0.01600
C974        C  0.92999343  0.09036095  0.39718857     0.08100
C975        C  0.93735535  0.13009955  0.39625417    -0.01700
C976        C  0.90769683  0.16113761  0.40658664    -0.01700
C977        C  0.86720266  0.15410946  0.41185469     0.08200
C978        C  0.85716408  0.11588888  0.40509597    -0.01900
Br979      Br  0.80077341  0.10656597  0.40585632    -0.00400
Br980      Br  0.87303981  0.04087535  0.37331905    -0.00500
Br981      Br  0.92407612  0.21264244  0.41418571    -0.00500
Br982      Br  0.97977501  0.14368631  0.37123662    -0.00500
C983        C  0.85823837  0.39944871  0.45709613    -0.01600
C984        C  0.85003293  0.37906581  0.43093180     0.08100
C985        C  0.86923903  0.38818594  0.40479434    -0.01700
C986        C  0.89711312  0.41571211  0.40515589    -0.01700
C987        C  0.90541582  0.43541717  0.43118196     0.08200
C988        C  0.88541096  0.42791074  0.45695774    -0.01900
Br989      Br  0.89618999  0.45666964  0.49198262    -0.00400
Br990      Br  0.83443956  0.38761227  0.49366723    -0.00500
Br991      Br  0.92334326  0.42771358  0.36960238    -0.00500
Br992      Br  0.85612669  0.36557087  0.36757559    -0.00500
C993        C  0.77303377  0.29232582  0.26369335    -0.01600
C994        C  0.76283991  0.25819393  0.24932553     0.08100
C995        C  0.74903357  0.22808345  0.26557815    -0.01700
C996        C  0.74638786  0.23168019  0.29612672    -0.01700
C997        C  0.75462062  0.26678445  0.31044791     0.08200
C998        C  0.76765216  0.29727352  0.29399727    -0.01900
Br999      Br  0.77623950  0.34673286  0.31255414    -0.00800
Br1000     Br  0.79617174  0.33135553  0.24180674    -0.00500
Br1001     Br  0.73468035  0.18711014  0.31830234    -0.00500
Br1002     Br  0.73211236  0.18272061  0.24581262    -0.00500
C1003       C  0.00139623  0.96920533  0.24971526    -0.01600
C1004       C  0.00856490  0.00156029  0.23266202     0.08100
C1005       C  0.51184273  0.03838469  0.24657613    -0.01700
C1006       C  0.51010143  0.04214622  0.27724127    -0.01700
C1007       C  0.00131290  0.01024922  0.29422088     0.08200
C1008       C  0.99669006  0.97383763  0.28017204    -0.01900
Br1009     Br  0.98256760  0.93043597  0.30244959    -0.00400
Br1010     Br  0.99953684  0.91788927  0.23145317    -0.00500
Br1011     Br  0.52297121  0.08996677  0.29602290    -0.00500
Br1012     Br  0.51534399  0.08467938  0.22364724    -0.00500
C1013       C  0.64925905  0.14803466  0.13887528    -0.01600
C1014       C  0.66869996  0.15634884  0.11288103     0.08100
C1015       C  0.66034564  0.13638374  0.08695107    -0.01700
C1016       C  0.63245941  0.10850257  0.08692474    -0.01700
C1017       C  0.61212753  0.10114222  0.11285631     0.08200
C1018       C  0.62012691  0.12173353  0.13866194    -0.01900
Br1019     Br  0.59006102  0.11509626  0.17373788    -0.00400
Br1020     Br  0.66504579  0.16989602  0.17539998    -0.00500
Br1021     Br  0.62432689  0.07851857  0.05197792    -0.00500
Br1022     Br  0.68877784  0.14645205  0.05203875    -0.00500
C1023       C  0.62737656  0.34212545  0.13659697    -0.01600
C1024       C  0.63752700  0.37870701  0.12714224     0.08100
C1025       C  0.67890389  0.38478493  0.12921459    -0.01700
C1026       C  0.70941552  0.35380514  0.13852246    -0.01700
C1027       C  0.70063440  0.31437231  0.14046269     0.08200
C1028       C  0.65868025  0.31112025  0.14495536    -0.01900
Br1029     Br  0.64403356  0.27211015  0.17125421    -0.00400
Br1030     Br  0.57040162  0.33582664  0.14103949    -0.00500
Br1031     Br  0.75508030  0.36927578  0.16003249    -0.00500
Br1032     Br  0.69424833  0.43568086  0.11991494    -0.00500
C1033       C  0.90302438  0.14568870  0.14269600    -0.01600
C1034       C  0.89108491  0.10833960  0.13580842     0.08100
C1035       C  0.84998774  0.10329219  0.14130663    -0.01700
C1036       C  0.82119000  0.13626213  0.15013121    -0.01700
C1037       C  0.83074190  0.17524750  0.14789206     0.08200
C1038       C  0.87298837  0.17851017  0.15009849    -0.01900
Br1039     Br  0.89019686  0.22173212  0.17208508    -0.00400
Br1040     Br  0.96064492  0.15113358  0.14531280    -0.00500
Br1041     Br  0.77693886  0.12684379  0.17523244    -0.00500
Br1042     Br  0.83188845  0.05211050  0.13662486    -0.00500
C1043       C  0.90455346  0.36818972  0.08255595    -0.01600
C1044       C  0.91960949  0.38020386  0.10976917     0.08100
C1045       C  0.90730207  0.36303564  0.13539868    -0.01700
C1046       C  0.87822742  0.33671043  0.13411441    -0.01700
C1047       C  0.86353504  0.32428837  0.10706342     0.08200
C1048       C  0.87701463  0.33991334  0.08129698    -0.01900
Br1049     Br  0.85637208  0.32316682  0.04458981    -0.00400
Br1050     Br  0.91962893  0.39179890  0.04709313    -0.00500
Br1051     Br  0.85616427  0.32039595  0.16988043    -0.00500
Br1052     Br  0.93180948  0.37369386  0.17249171    -0.00500
C1053       C  0.59284552  0.13311225  0.95259724    -0.01600
C1054       C  0.58584719  0.11328265  0.92592258     0.08100
C1055       C  0.60466126  0.12429583  0.90024827    -0.01700
C1056       C  0.63224151  0.15194942  0.90169317    -0.01700
C1057       C  0.64033471  0.17016291  0.92833188     0.08200
C1058       C  0.61928955  0.16214606  0.95344102    -0.01900
Br1059     Br  0.62667221  0.19190678  0.98861960    -0.00400
Br1060     Br  0.56817415  0.12022975  0.98853248    -0.00500
Br1061     Br  0.65801179  0.16635980  0.86680808    -0.00500
Br1062     Br  0.59125368  0.10437825  0.86233389    -0.00500
C1063       C  0.85218865  0.14892603  0.94210695    -0.01600
C1064       C  0.86685604  0.12437232  0.91807266     0.08100
C1065       C  0.84693368  0.13132012  0.89080129    -0.01700
C1066       C  0.81208425  0.16044107  0.88824084    -0.01700
C1067       C  0.80236233  0.18989061  0.91029094     0.08200
C1068       C  0.82016226  0.18130980  0.93837288    -0.01900
Br1069     Br  0.79721098  0.20887831  0.97329036    -0.00400
Br1070     Br  0.87367954  0.13703046  0.98081123    -0.00500
Br1071     Br  0.77162974  0.14954255  0.85979858    -0.00500
Br1072     Br  0.86717861  0.10290098  0.85556237    -0.00500
C1073       C  0.59842742  0.35096543  0.89882383    -0.01600
C1074       C  0.60799207  0.38940788  0.90486786     0.08100
C1075       C  0.64887486  0.39636264  0.90125846    -0.01700
C1076       C  0.67982727  0.36426210  0.89500228    -0.01700
C1077       C  0.67148495  0.32490081  0.89810956     0.08200
C1078       C  0.63030291  0.31932299  0.89324520    -0.01900
Br1079     Br  0.61823192  0.27547257  0.86893066    -0.00400
Br1080     Br  0.54202747  0.34195201  0.89547904    -0.00500
Br1081     Br  0.72746770  0.37516440  0.87370391    -0.00500
Br1082     Br  0.66379915  0.44899260  0.90572482    -0.00500
C1083       C  0.85559039  0.34786037  0.90601582    -0.01600
C1084       C  0.82960208  0.34853142  0.93054414     0.08100
C1085       C  0.83028417  0.37814107  0.95236671    -0.01700
C1086       C  0.85787226  0.40582692  0.95032459    -0.01700
C1087       C  0.88479004  0.40392278  0.92645333     0.08200
C1088       C  0.88355417  0.37509721  0.90428025    -0.01900
Br1089     Br  0.92108431  0.37239705  0.87185709    -0.00400
Br1090     Br  0.85143577  0.31163252  0.87367550    -0.00500
Br1091     Br  0.85842192  0.44692363  0.97982360    -0.00500
Br1092     Br  0.79356666  0.38052024  0.98508104    -0.00500
C1093       C  0.99872181  0.04009437  0.79086171    -0.01600
C1094       C  0.48005804  0.01181884  0.80615699     0.08100
C1095       C  0.46072798  0.48374338  0.79013214    -0.01700
C1096       C  0.46207864  0.48292814  0.75944123    -0.01700
C1097       C  0.48278243  0.50969439  0.74458922     0.08200
C1098       C  0.00104926  0.03824128  0.76027978    -0.01900
Br1099     Br  0.02978436  0.07431970  0.73948680    -0.00400
Br1100     Br  0.01726580  0.08406816  0.81123124    -0.00500
Br1101     Br  0.43602701  0.44503366  0.73727101    -0.00500
Br1102     Br  0.43292222  0.44567068  0.80966740    -0.00500
C1103       C  0.76957627  0.28908747  0.78214576    -0.01600
C1104       C  0.74835246  0.26313568  0.79739696     0.08100
C1105       C  0.72275577  0.24027478  0.78215556    -0.01700
C1106       C  0.72044115  0.24117261  0.75159618    -0.01700
C1107       C  0.74345206  0.26572472  0.73602622     0.08200
C1108       C  0.76712989  0.29055672  0.75155860    -0.01900
Br1109     Br  0.79349703  0.32906569  0.73133951    -0.00400
Br1110     Br  0.80006482  0.32403680  0.80357701    -0.00500
Br1111     Br  0.68619105  0.20794997  0.73157255    -0.00500
Br1112     Br  0.68951715  0.20903052  0.80353803    -0.00500
C1113       C  0.91226918  0.09021308  0.60443870    -0.01600
C1114       C  0.92826737  0.08017122  0.63273303     0.08100
C1115       C  0.91786038  0.10846696  0.65541409    -0.01700
C1116       C  0.88283580  0.13707619  0.65298421    -0.01700
C1117       C  0.86447633  0.14528796  0.62546642     0.08200
C1118       C  0.88091722  0.12298035  0.60088553    -0.01900
Br1119     Br  0.86308749  0.13884335  0.56202936    -0.00400
Br1120     Br  0.93636293  0.06346253  0.56951936    -0.00500
Br1121     Br  0.86055766  0.16344675  0.68838525    -0.00500
Br1122     Br  0.95830802  0.12071341  0.68340503    -0.00500
C1123       C  0.59850025  0.38466436  0.65354021    -0.01600
C1124       C  0.62331674  0.38042803  0.62830783     0.08100
C1125       C  0.61360098  0.40731878  0.60525525    -0.01700
C1126       C  0.57983906  0.43801026  0.60775927    -0.01700
C1127       C  0.55670413  0.44376865  0.63408538     0.08200
C1128       C  0.56293960  0.41298043  0.65469879    -0.01900
Br1129     Br  0.51836778  0.39895098  0.67773803    -0.00400
Br1130     Br  0.61347227  0.35407122  0.68817881    -0.00500
Br1131     Br  0.56242140  0.46740670  0.57281291    -0.00500
Br1132     Br  0.64534970  0.40263084  0.56953819    -0.00500
C1133       C  0.86700980  0.42495344  0.63919891    -0.01600
C1134       C  0.89608151  0.42279414  0.61643268     0.08100
C1135       C  0.89794711  0.39231441  0.59499281    -0.01700
C1136       C  0.87121800  0.36397794  0.59637208    -0.01700
C1137       C  0.84265711  0.36614046  0.61915803     0.08200
C1138       C  0.83967325  0.39707629  0.64008575    -0.01900
Br1139     Br  0.79687765  0.40196833  0.66913444    -0.00400
Br1140     Br  0.86609168  0.46388598  0.67039463    -0.00500
Br1141     Br  0.87339255  0.32222190  0.56704786    -0.00500
Br1142     Br  0.93669584  0.38975986  0.56340865    -0.00500
C1143       C  0.61562115  0.15740812  0.59980775    -0.01600
C1144       C  0.64577136  0.15684126  0.62157045     0.08100
C1145       C  0.64767418  0.12955163  0.64443222    -0.01700
C1146       C  0.61948811  0.10240788  0.64530427    -0.01700
C1147       C  0.59011728  0.10199439  0.62287403     0.08200
C1148       C  0.58806653  0.12977526  0.60026255    -0.01900
Br1149     Br  0.54769288  0.12996515  0.56968985    -0.00400
Br1150     Br  0.61069167  0.19772051  0.57036439    -0.00500
Br1151     Br  0.61912606  0.06813226  0.67833167    -0.00500
Br1152     Br  0.68895829  0.12927903  0.67441112    -0.00500
O1153       O  0.68815643  0.84882877  0.61015150    -0.78200
C1154       C  0.81511397  0.83653007  0.62068346     0.82800
O1155       O  0.75019506  0.73237612  0.55060710    -0.79300
O1156       O  0.83193785  0.71009579  0.63828216    -0.80800
O1157       O  0.70923041  0.76752409  0.69018088    -0.80600
O1158       O  0.65282833  0.81377266  0.63806772    -0.79200
Zn1159     Zn  0.73746904  0.81068861  0.59745570     1.55700
O1160       O  0.77734728  0.76202221  0.69026820    -0.80600
Cd1161     Cd  0.69498347  0.76454704  0.64643466     1.59700
Cd1162     Cd  0.74899052  0.71555225  0.59425617     1.59600
O1163       O  0.66833192  0.71450906  0.64017980    -0.80600
O1164       O  0.74350081  0.76330807  0.62069364    -1.91100
Cd1165     Cd  0.79227362  0.76136575  0.64650520     1.59900
O1166       O  0.70103588  0.68403946  0.60147338    -0.80600
O1167       O  0.82240451  0.80883739  0.63909359    -0.79200
C1168       C  0.74364568  0.76661941  0.53886922     0.83300
C1169       C  0.65659807  0.84591805  0.62530831     0.82900
O1170       O  0.78461107  0.83967782  0.60348154    -0.78200
C1171       C  0.74326815  0.76516043  0.70374769     0.83800
O1172       O  0.73611592  0.79856860  0.55415806    -0.78300
C1173       C  0.67355672  0.68655886  0.62117419     0.83900
C1174       C  0.83084946  0.67920102  0.62241293     0.84200
O1175       O  0.80154880  0.67663693  0.60456873    -0.80700
C1176       C  0.52273869  0.97979965  0.63771748     0.30300
C1177       C  0.96079767  0.54333408  0.63693983     0.30300
C1178       C  0.98433335  0.97365384  0.62028642    -0.05900
C1179       C  0.50489866  0.99428722  0.66791586    -0.06700
C1180       C  0.53392157  0.51878875  0.62621227    -0.06600
C1181       C  0.95247376  0.00601767  0.62008453    -0.05900
C1182       C  0.97169430  0.52548705  0.66734733    -0.06700
C1183       C  0.50230396  0.55075744  0.62556260    -0.06600
C1184       C  0.91629065  0.99046609  0.61727690    -0.32000
N1185       N  0.92500888  0.95032121  0.61556390     0.14500
C1186       C  0.96609666  0.93988814  0.61774766    -0.32000
H1187       H  0.98128371  0.90962504  0.62044770     0.16500
C1188       C  0.95793672  0.53165926  0.69564272    -0.30900
N1189       N  0.48427499  0.00871953  0.71336818     0.13300
C1190       C  0.51368580  0.98672756  0.69690289    -0.30900
C1191       C  0.52000428  0.58475656  0.62440908    -0.31200
N1192       N  0.56124904  0.57442355  0.62342989     0.13800
H1193       H  0.50420275  0.61505274  0.62615790     0.16400
C1194       C  0.57022752  0.53430204  0.62526755    -0.31200
H1195       H  0.60086971  0.51780572  0.62742305     0.16400
H1196       H  0.53967760  0.96707137  0.70558655     0.16400
H1197       H  0.88567432  0.00708273  0.61942044     0.16500
H1198       H  0.93135709  0.55193094  0.70310278     0.16400
O1199       O  0.52757380  0.58462127  0.94111421    -0.78200
C1200       C  0.90002479  0.58944160  0.92145351     0.82800
O1201       O  0.50504872  0.96715840  0.98857683    -0.79300
O1202       O  0.90712201  0.96041463  0.90649789    -0.80800
O1203       O  0.51615584  0.51325313  0.85128626    -0.80600
O1204       O  0.56680459  0.55307000  0.90625321    -0.79200
Zn1205     Zn  0.48226480  0.55219035  0.94854228     1.55700
O1206       O  0.94992444  0.50712081  0.85296282    -0.80600
Cd1207     Cd  0.53476906  0.50740261  0.89462362     1.59700
Cd1208     Cd  0.49658419  0.95629380  0.94463702     1.59600
O1209       O  0.57388307  0.95445872  0.89631609    -0.80600
O1210       O  0.48784412  0.50651741  0.92179530    -1.91100
Cd1211     Cd  0.93764653  0.50731449  0.89726146     1.59900
O1212       O  0.54770157  0.91872292  0.92975640    -0.80600
O1213       O  0.89845826  0.55889947  0.90534417    -0.79200
C1214       C  0.49890604  0.49949453  0.00345527     0.83300
C1215       C  0.55871992  0.58190545  0.92447645     0.82900
O1216       O  0.92947267  0.59054361  0.93956137    -0.78200
C1217       C  0.48205248  0.51086080  0.83856001     0.83800
O1218       O  0.48806978  0.53322944  0.99133362    -0.78300
C1219       C  0.57480854  0.92276376  0.91079043     0.83900
C1220       C  0.91424279  0.93212828  0.92449968     0.84200
O1221       O  0.94612049  0.92702618  0.94063362    -0.80700
C1222       C  0.76899330  0.72650567  0.90556013     0.30300
C1223       C  0.70606479  0.78964383  0.90237488     0.30300
C1224       C  0.77571346  0.76464959  0.92231560    -0.05900
C1225       C  0.75899164  0.74362744  0.87468725    -0.06700
C1226       C  0.72701714  0.71932184  0.91671629    -0.06600
C1227       C  0.74326441  0.79661795  0.92167901    -0.05900
C1228       C  0.72620886  0.77474729  0.87359118    -0.06700
C1229       C  0.69514405  0.75122845  0.91579259    -0.06600
C1230       C  0.75994349  0.83017276  0.92977502    -0.32000
N1231       N  0.80121954  0.82036766  0.93246235     0.14500
C1232       C  0.81095635  0.78057030  0.92825393    -0.32000
H1233       H  0.84225475  0.76477296  0.92610068     0.16500
C1234       C  0.71988061  0.78572297  0.84516696    -0.30900
N1235       N  0.74868381  0.76342123  0.82865085     0.13300
C1236       C  0.77355698  0.73845762  0.84627035    -0.30900
C1237       C  0.66035378  0.73701064  0.92521541    -0.31200
N1238       N  0.66978607  0.69728498  0.92944011     0.13800
H1239       H  0.62949149  0.75331111  0.92657550     0.16400
C1240       C  0.71060591  0.68630596  0.92485388    -0.31200
H1241       H  0.72624894  0.65593748  0.92460230     0.16400
H1242       H  0.79969768  0.71766453  0.83871658     0.16400
H1243       H  0.74434729  0.86020765  0.93055670     0.16500
H1244       H  0.69569147  0.80790601  0.83691643     0.16400
O1245       O  0.57790789  0.91092361  0.10161189    -0.78200
C1246       C  0.94609817  0.91212316  0.11208637     0.82800
O1247       O  0.99560596  0.52991859  0.05037938    -0.79300
O1248       O  0.92324069  0.54116651  0.14082986    -0.80800
O1249       O  0.54309194  0.50421826  0.18707937    -0.80600
O1250       O  0.60175791  0.94273014  0.13963611    -0.79200
Zn1251     Zn  0.02267108  0.94574045  0.09065036     1.55700
O1252       O  0.98042589  0.48687973  0.18657775    -0.80600
Cd1253     Cd  0.56125866  0.49568472  0.14335423     1.59700
Cd1254     Cd  0.00288215  0.54262658  0.09413099     1.59600
O1255       O  0.59156029  0.54255021  0.13174088    -0.80600
O1256       O  0.01315379  0.49233226  0.11708808    -1.91100
Cd1257     Cd  0.96468535  0.48909879  0.14265235     1.59900
O1258       O  0.55183230  0.57501541  0.09770008    -0.80600
O1259       O  0.93651005  0.94043600  0.13064159    -0.79200
C1260       C  0.00441942  0.49774183  0.03552061     0.83300
C1261       C  0.60425618  0.91288193  0.12207175     0.82900
O1262       O  0.97784946  0.91052173  0.09598114    -0.78200
C1263       C  0.01096684  0.49723758  0.20034440     0.83800
O1264       O  0.01754760  0.96441671  0.04765040    -0.78300
C1265       C  0.58381286  0.57102154  0.11382318     0.83900
C1266       C  0.92291344  0.57401332  0.12782834     0.84200
O1267       O  0.95052039  0.57889967  0.10938416    -0.80700
C1268       C  0.73521682  0.77745381  0.14083625     0.30300
C1269       C  0.79667138  0.71199280  0.14453096     0.30300
C1270       C  0.77563815  0.78007240  0.12399699    -0.05900
C1271       C  0.75109732  0.76568626  0.17139664    -0.06700
C1272       C  0.72459257  0.73749903  0.12824219    -0.06600
C1273       C  0.80684812  0.74714272  0.12612148    -0.05900
C1274       C  0.78183440  0.73279556  0.17330477    -0.06700
C1275       C  0.75574778  0.70452951  0.12987912    -0.06600
C1276       C  0.84193857  0.75861355  0.11446001    -0.32000
N1277       N  0.83358863  0.79723475  0.10632006     0.14500
C1278       C  0.79284377  0.80958087  0.11030438    -0.32000
H1279       H  0.77814379  0.83958446  0.10618455     0.16500
C1280       C  0.79006418  0.72670070  0.20247367    -0.30900
N1281       N  0.76516446  0.75485477  0.21811127     0.13300
C1282       C  0.74137868  0.77879907  0.19937833    -0.30900
C1283       C  0.73903252  0.67192505  0.11944503    -0.31200
N1284       N  0.69868773  0.68328475  0.11348560     0.13800
H1285       H  0.75392516  0.64138159  0.11806247     0.16400
C1286       C  0.68994858  0.72334091  0.11756115    -0.31200
H1287       H  0.65963201  0.74020724  0.11486934     0.16400
H1288       H  0.71815638  0.80345542  0.20575661     0.16400
H1289       H  0.87250093  0.74182800  0.11464548     0.16500
H1290       H  0.81196382  0.70320459  0.21170161     0.16400
C1291       C  0.96595375  0.55547819  0.39999429     0.30300
C1292       C  0.53105123  0.99400431  0.40356096     0.30300
C1293       C  0.95777272  0.51827309  0.41698719    -0.05900
C1294       C  0.98323293  0.53694778  0.37072331    -0.06700
C1295       C  0.50517887  0.56493699  0.41596271    -0.06600
C1296       C  0.99054604  0.98685488  0.41765171    -0.05900
C1297       C  0.51568493  0.00536671  0.37255025    -0.06700
C1298       C  0.53792745  0.53380992  0.41699781    -0.06600
C1299       C  0.97478427  0.95315542  0.42523292    -0.32000
N1300       N  0.93423757  0.96328269  0.43106468     0.14500
C1301       C  0.92381023  0.00301061  0.42708090    -0.32000
H1302       H  0.89273209  0.51849345  0.42890233     0.16500
C1303       C  0.52373110  0.99108494  0.34450661    -0.30900
N1304       N  0.99914585  0.51412042  0.32564864     0.13300
C1305       C  0.97388084  0.54195192  0.34147564    -0.30900
C1306       C  0.57233937  0.54927809  0.42573228    -0.31200
N1307       N  0.56148026  0.58875995  0.43088140     0.13800
H1308       H  0.60364428  0.53395074  0.42523893     0.16400
C1309       C  0.52050133  0.59835316  0.42628118    -0.31200
H1310       H  0.50438213  0.62844502  0.42789126     0.16400
H1311       H  0.95031762  0.56401372  0.33238890     0.16400
H1312       H  0.99071123  0.92287968  0.42382028     0.16500
H1313       H  0.54598904  0.96567775  0.33807457     0.16400
O1314       O  0.70666853  0.69553734  0.44153237    -0.78200
C1315       C  0.83450856  0.68842933  0.41790946     0.82800
O1316       O  0.73831592  0.80374573  0.49508488    -0.79300
O1317       O  0.82937766  0.81865541  0.41330249    -0.80800
O1318       O  0.71841007  0.76579921  0.35528077    -0.80600
O1319       O  0.66562553  0.73185041  0.41014975    -0.79200
Zn1320     Zn  0.75490901  0.72441058  0.44833110     1.55700
O1321       O  0.78299800  0.77802730  0.35688155    -0.80600
Cd1322     Cd  0.70006461  0.77509337  0.39857671     1.59700
Cd1323     Cd  0.74101370  0.82119675  0.45164586     1.59600
O1324       O  0.66329994  0.83016038  0.40131211    -0.80600
O1325       O  0.74821596  0.77298149  0.42543222    -1.91100
Cd1326     Cd  0.79733461  0.77340432  0.40070627     1.59900
O1327       O  0.68811617  0.85932701  0.44012605    -0.80600
O1328       O  0.83471120  0.71966184  0.40309828    -0.79200
C1329       C  0.74536013  0.76948520  0.50681947     0.83300
C1330       C  0.67358834  0.70198622  0.42675869     0.82900
O1331       O  0.80662932  0.68604984  0.43674994    -0.78200
C1332       C  0.75166435  0.77066133  0.34260637     0.83800
O1333       O  0.75407640  0.73753622  0.49160838    -0.78300
C1334       C  0.66226453  0.85928839  0.41931287     0.83900
C1335       C  0.82144324  0.84881159  0.43038122     0.84200
O1336       O  0.78922048  0.85398651  0.44620120    -0.80700
C1337       C  0.60343594  0.62878739  0.40319820    -0.01600
C1338       C  0.58968478  0.61697624  0.43018128     0.08100
C1339       C  0.60342447  0.63285539  0.45616279    -0.01700
C1340       C  0.63090503  0.66082801  0.45532057    -0.01700
C1341       C  0.64419967  0.67326943  0.42819355     0.08200
C1342       C  0.63021153  0.65714488  0.40213971    -0.01900
Br1343     Br  0.64904158  0.67210483  0.36476031    -0.00400
Br1344     Br  0.58637103  0.60515752  0.36758871    -0.00500
Br1345     Br  0.64879290  0.68297033  0.49130064    -0.00500
Br1346     Br  0.58438275  0.61549380  0.49257764    -0.00500
C1347       C  0.57366248  0.94153761  0.43569506    -0.01600
C1348       C  0.56816466  0.96109255  0.40843717     0.08100
C1349       C  0.60092112  0.95280003  0.38816645    -0.01700
C1350       C  0.63001786  0.91803526  0.39080807    -0.01700
C1351       C  0.63036880  0.89448928  0.41576426     0.08200
C1352       C  0.60312341  0.90723401  0.43867510    -0.01900
Br1353     Br  0.60549965  0.87711246  0.47410804    -0.00400
Br1354     Br  0.54721519  0.96483348  0.47090538    -0.00500
Br1355     Br  0.67144835  0.90432739  0.36115865    -0.00500
Br1356     Br  0.61467908  0.99353738  0.36274906    -0.00500
C1357       C  0.88832801  0.58472451  0.39612565    -0.01600
C1358       C  0.93000125  0.59037352  0.39718248     0.08100
C1359       C  0.93736657  0.63011233  0.39626101    -0.01700
C1360       C  0.90770364  0.66114800  0.40659188    -0.01700
C1361       C  0.86720678  0.65411869  0.41184737     0.08200
C1362       C  0.85716877  0.61590239  0.40507443    -0.01900
Br1363     Br  0.80077563  0.60658480  0.40581408    -0.00400
Br1364     Br  0.87305467  0.54089447  0.37329121    -0.00500
Br1365     Br  0.92407752  0.71265254  0.41420230    -0.00500
Br1366     Br  0.97979447  0.64370745  0.37125425    -0.00500
C1367       C  0.85823291  0.89945284  0.45710431    -0.01600
C1368       C  0.85004008  0.87906244  0.43094007     0.08100
C1369       C  0.86926870  0.88816799  0.40480760    -0.01700
C1370       C  0.89715217  0.91568546  0.40517475    -0.01700
C1371       C  0.90543975  0.93540000  0.43120043     0.08200
C1372       C  0.88541267  0.92790875  0.45697048    -0.01900
Br1373     Br  0.89617070  0.95667990  0.49199450    -0.00400
Br1374     Br  0.83440618  0.88763677  0.49367052    -0.00500
Br1375     Br  0.92341319  0.92766410  0.36962753    -0.00500
Br1376     Br  0.85617436  0.86554761  0.36758605    -0.00500
C1377       C  0.77303763  0.79232431  0.26369872    -0.01600
C1378       C  0.76284513  0.75819227  0.24933041     0.08100
C1379       C  0.74903510  0.72808306  0.26558238    -0.01700
C1380       C  0.74638286  0.73168222  0.29613071    -0.01700
C1381       C  0.75461295  0.76678747  0.31045197     0.08200
C1382       C  0.76764936  0.79727468  0.29400192    -0.01900
Br1383     Br  0.77623554  0.84673492  0.31255856    -0.00800
Br1384     Br  0.79618377  0.83135012  0.24181358    -0.00500
Br1385     Br  0.73467120  0.68711371  0.31830618    -0.00500
Br1386     Br  0.73211893  0.68271823  0.24581650    -0.00500
C1387       C  0.00138551  0.46920535  0.24970737    -0.01600
C1388       C  0.00856503  0.50155927  0.23265704     0.08100
C1389       C  0.51184464  0.53838037  0.24657299    -0.01700
C1390       C  0.51009989  0.54213790  0.27723808    -0.01700
C1391       C  0.00130237  0.51024443  0.29421488     0.08200
C1392       C  0.99666962  0.47383738  0.28016336    -0.01900
Br1393     Br  0.98252173  0.43044231  0.30243577    -0.00400
Br1394     Br  0.99952947  0.41789013  0.23144297    -0.00500
Br1395     Br  0.52299319  0.58994536  0.29602568    -0.00500
Br1396     Br  0.51535834  0.58467642  0.22364882    -0.00500
C1397       C  0.64926883  0.64803616  0.13887879    -0.01600
C1398       C  0.66870591  0.65635528  0.11288431     0.08100
C1399       C  0.66034870  0.63639418  0.08695329    -0.01700
C1400       C  0.63246406  0.60851129  0.08692631    -0.01700
C1401       C  0.61213604  0.60114516  0.11285833     0.08200
C1402       C  0.62013882  0.62173256  0.13866524    -0.01900
Br1403     Br  0.59008072  0.61508715  0.17374305    -0.00400
Br1404     Br  0.66505638  0.66989711  0.17540349    -0.00500
Br1405     Br  0.62432979  0.57853180  0.05197776    -0.00500
Br1406     Br  0.68877418  0.64647112  0.05204004    -0.00500
C1407       C  0.62737892  0.84213106  0.13661009    -0.01600
C1408       C  0.63752774  0.87871052  0.12714976     0.08100
C1409       C  0.67890450  0.88478945  0.12921800    -0.01700
C1410       C  0.70941748  0.85381157  0.13852650    -0.01700
C1411       C  0.70063748  0.81437882  0.14047064     0.08200
C1412       C  0.65868421  0.81112643  0.14496713    -0.01900
Br1413     Br  0.64404178  0.77211329  0.17126506    -0.00400
Br1414     Br  0.57040458  0.83583566  0.14106191    -0.00500
Br1415     Br  0.75508154  0.86928664  0.16003439    -0.00500
Br1416     Br  0.69424647  0.93568488  0.11991365    -0.00500
C1417       C  0.90303150  0.64569751  0.14268868    -0.01600
C1418       C  0.89109091  0.60834682  0.13580749     0.08100
C1419       C  0.84999514  0.60330033  0.14131334    -0.01700
C1420       C  0.82119888  0.63627216  0.15013697    -0.01700
C1421       C  0.83074976  0.67525698  0.14789130     0.08200
C1422       C  0.87299685  0.67852034  0.15009101    -0.01900
Br1423     Br  0.89021068  0.72174687  0.17206950    -0.00400
Br1424     Br  0.96065257  0.65114299  0.14529933    -0.00500
Br1425     Br  0.77694709  0.62685975  0.17523962    -0.00500
Br1426     Br  0.83189502  0.55211726  0.13664428    -0.00500
C1427       C  0.90455681  0.86818917  0.08255089    -0.01600
C1428       C  0.91960758  0.88020600  0.10976515     0.08100
C1429       C  0.90729478  0.86304109  0.13539436    -0.01700
C1430       C  0.87821901  0.83671762  0.13410866    -0.01700
C1431       C  0.86353191  0.82429282  0.10705681     0.08200
C1432       C  0.87701962  0.83991143  0.08129059    -0.01900
Br1433     Br  0.85639358  0.82315146  0.04458183    -0.00400
Br1434     Br  0.91963473  0.89179807  0.04708861    -0.00500
Br1435     Br  0.85615142  0.82040524  0.16987391    -0.00500
Br1436     Br  0.93179588  0.87370125  0.17248950    -0.00500
C1437       C  0.59285182  0.63311164  0.95260024    -0.01600
C1438       C  0.58585385  0.61328163  0.92592556     0.08100
C1439       C  0.60467276  0.62429152  0.90025209    -0.01700
C1440       C  0.63225717  0.65194123  0.90169789    -0.01700
C1441       C  0.64034891  0.67015568  0.92833654     0.08200
C1442       C  0.61929895  0.66214291  0.95344463    -0.01900
Br1443     Br  0.62667807  0.69190695  0.98862230    -0.00400
Br1444     Br  0.56817480  0.62023425  0.98853464    -0.00500
Br1445     Br  0.65803344  0.66634681  0.86681345    -0.00500
Br1446     Br  0.59126534  0.60437639  0.86233698    -0.00500
C1447       C  0.85218926  0.64892724  0.94210804    -0.01600
C1448       C  0.86686435  0.62437957  0.91807274     0.08100
C1449       C  0.84695343  0.63133570  0.89079861    -0.01700
C1450       C  0.81210303  0.66045498  0.88823644    -0.01700
C1451       C  0.80237157  0.68989852  0.91028966     0.08200
C1452       C  0.82016448  0.68131243  0.93837312    -0.01900
Br1453     Br  0.79720603  0.70887636  0.97329021    -0.00400
Br1454     Br  0.87366764  0.63702041  0.98081383    -0.00500
Br1455     Br  0.77165638  0.64955322  0.85978942    -0.00500
Br1456     Br  0.86721636  0.60292881  0.85555950    -0.00500
C1457       C  0.59842188  0.85096040  0.89882233    -0.01600
C1458       C  0.60798416  0.88940279  0.90486980     0.08100
C1459       C  0.64886709  0.89635921  0.90126661    -0.01700
C1460       C  0.67982108  0.86426087  0.89501046    -0.01700
C1461       C  0.67148107  0.82489853  0.89811568     0.08200
C1462       C  0.63029988  0.81931810  0.89324810    -0.01900
Br1463     Br  0.61823344  0.77546034  0.86893914    -0.00400
Br1464     Br  0.54202241  0.84194890  0.89546623    -0.00500
Br1465     Br  0.72745978  0.87516879  0.87371271    -0.00500
Br1466     Br  0.66378953  0.94898888  0.90574143    -0.00500
C1467       C  0.85557184  0.84787941  0.90601538    -0.01600
C1468       C  0.82959253  0.84854412  0.93054789     0.08100
C1469       C  0.83028022  0.87814984  0.95237263    -0.01700
C1470       C  0.85786773  0.90583607  0.95032920    -0.01700
C1471       C  0.88478050  0.90393443  0.92645520     0.08200
C1472       C  0.88353655  0.87511487  0.90427902    -0.01900
Br1473     Br  0.92105866  0.87241903  0.87185132    -0.00400
Br1474     Br  0.85140367  0.81166134  0.87367142    -0.00500
Br1475     Br  0.85842191  0.94693110  0.97982905    -0.00500
Br1476     Br  0.79357162  0.88052277  0.98509147    -0.00500
C1477       C  0.99872687  0.54008789  0.79086196    -0.01600
C1478       C  0.48006319  0.51181519  0.80615541     0.08100
C1479       C  0.46072390  0.98374577  0.79013440    -0.01700
C1480       C  0.46207182  0.98293152  0.75944356    -0.01700
C1481       C  0.48277423  0.00969830  0.74459111     0.08200
C1482       C  0.00105540  0.53823419  0.76028006    -0.01900
Br1483     Br  0.02979301  0.57431087  0.73948732    -0.00400
Br1484     Br  0.01727943  0.58405748  0.81123150    -0.00500
Br1485     Br  0.43601696  0.94503873  0.73727396    -0.00500
Br1486     Br  0.43292255  0.94567065  0.80967049    -0.00500
C1487       C  0.76957210  0.78910456  0.78214725    -0.01600
C1488       C  0.74835088  0.76315144  0.79739944     0.08100
C1489       C  0.72275724  0.74028674  0.78215864    -0.01700
C1490       C  0.72044615  0.74117964  0.75159906    -0.01700
C1491       C  0.74345802  0.76572984  0.73602810     0.08200
C1492       C  0.76713069  0.79056743  0.75155962    -0.01900
Br1493     Br  0.79349596  0.82907589  0.73133829    -0.00400
Br1494     Br  0.80004629  0.82406721  0.80357732    -0.00500
Br1495     Br  0.68619783  0.70795428  0.73157656    -0.00500
Br1496     Br  0.68951571  0.70904608  0.80354219    -0.00500
C1497       C  0.91226315  0.59020876  0.60444123    -0.01600
C1498       C  0.92826472  0.58016958  0.63273520     0.08100
C1499       C  0.91786276  0.60846881  0.65541506    -0.01700
C1500       C  0.88284084  0.63708159  0.65298506    -0.01700
C1501       C  0.86447638  0.64528853  0.62546821     0.08200
C1502       C  0.88091101  0.62297553  0.60088803    -0.01900
Br1503     Br  0.86307238  0.63883032  0.56203188    -0.00400
Br1504     Br  0.93635391  0.56345678  0.56952128    -0.00500
Br1505     Br  0.86057301  0.66346502  0.68838468    -0.00500
Br1506     Br  0.95831146  0.62070842  0.68340775    -0.00500
C1507       C  0.59849530  0.88465789  0.65354336    -0.01600
C1508       C  0.62331751  0.88042632  0.62831347     0.08100
C1509       C  0.61360846  0.90732397  0.60526409    -0.01700
C1510       C  0.57984377  0.93801237  0.60776663    -0.01700
C1511       C  0.55670322  0.94376624  0.63409039     0.08200
C1512       C  0.56293530  0.91297528  0.65470178    -0.01900
Br1513     Br  0.51836161  0.89894876  0.67774068    -0.00400
Br1514     Br  0.61346044  0.85405933  0.68818065    -0.00500
Br1515     Br  0.56243087  0.96741085  0.57282005    -0.00500
Br1516     Br  0.64537284  0.90265496  0.56955413    -0.00500
C1517       C  0.86700096  0.92496256  0.63919738    -0.01600
C1518       C  0.89607876  0.92279698  0.61643453     0.08100
C1519       C  0.89795108  0.89231008  0.59499959    -0.01700
C1520       C  0.87122339  0.86397276  0.59638071    -0.01700
C1521       C  0.84265279  0.86614496  0.61916082     0.08200
C1522       C  0.83966238  0.89708714  0.64008372    -0.01900
Br1523     Br  0.79685909  0.90198666  0.66912704    -0.00400
Br1524     Br  0.86607954  0.96389854  0.67039109    -0.00500
Br1525     Br  0.87341566  0.82219949  0.56706843    -0.00500
Br1526     Br  0.93670725  0.88974585  0.56341936    -0.00500
C1527       C  0.61561790  0.65741432  0.59980472    -0.01600
C1528       C  0.64576557  0.65684684  0.62156940     0.08100
C1529       C  0.64766188  0.62956005  0.64443266    -0.01700
C1530       C  0.61947493  0.60241712  0.64530259    -0.01700
C1531       C  0.59010822  0.60200274  0.62286983     0.08200
C1532       C  0.58805931  0.62978502  0.60025933    -0.01900
Br1533     Br  0.54767997  0.62998469  0.56968962    -0.00400
Br1534     Br  0.61069801  0.69772226  0.57035841    -0.00500
Br1535     Br  0.61910438  0.56814459  0.67833089    -0.00500
Br1536     Br  0.68893914  0.62928916  0.67441619    -0.00500
loop_ 
_geom_bond_atom_site_label_1 
_geom_bond_atom_site_label_2 
_geom_bond_distance 
_geom_bond_site_symmetry_2 
_ccdc_geom_bond_type 
O1           C17   1.270       .  A
O1           Zn7   2.000       .  S
C2           O18   1.268       .  A
C2           O15   1.271       .  A
C2          C369   1.455       .  S
O3           C16   1.279       .  A
O3          Cd10   2.097       .  S
O4           C22   1.272       .  A
O4          Cd13   2.043       .  S
O5           C19   1.272       .  A
O5           Cd9   2.065       .  S
O6           C17   1.271       .  A
O6           Cd9   2.046       .  S
Zn7          O18   1.975       .  S
Zn7          O20   2.025       .  S
Zn7          O12   1.932       .  S
O8           C19   1.273       .  A
O8          Cd13   2.070       .  S
Cd9          O11   2.042       .  S
Cd9          O12   1.987       .  S
Cd10         O14   2.068       .  S
Cd10         O23   2.071       .  S
Cd10         O12   1.995       .  S
O11          C21   1.271       .  A
O12         Cd13   1.985       .  S
Cd13         O15   2.051       .  S
O14          C21   1.275       .  A
C16          O20   1.275       .  A
C16         C177   1.479       .  S
C17         C356   1.483       .  S
C19         C339   1.482       .  S
C21         C376   1.461       .  S
C22          O23   1.275       .  A
C22         C349   1.480       .  S
C24          C27   1.551       .  S
C24         C359   1.535       .  S
C24         C794   1.532   1_455  S
C24         C412   1.531       .  S
C25          C30   1.552       .  S
C25         C346   1.533       .  S
C25         C413   1.532       .  S
C25         C799   1.523       .  S
C26         C792   1.532       .  S
C26          C34   1.376       .  A
C26          C29   1.400       .  A
C27          C38   1.382       .  A
C27        C1182   1.403   1_455  A
C28         C408   1.531   1_545  S
C28          C42   1.378       .  A
C28          C31   1.386       .  A
C29         C409   1.532       .  S
C29          C32   1.379       .  A
C30          C36   1.380       .  A
C30        C1179   1.403   1_545  A
C31         C793   1.523   1_455  S
C31          C39   1.372       .  A
C32          N33   1.351       .  A
C32          H45   1.082       .  S
N33          C34   1.349       .  A
N33         C366   1.433       .  S
C34          H35   1.082       .  S
C36        N1189   1.354       .  A
C36          H46   1.081       .  S
N37          C38   1.355   1_655  A
N37        C1188   1.354       .  A
N37         C329   1.435       .  S
C38          H44   1.082       .  S
C39          N40   1.351       .  A
C39          H41   1.082       .  S
N40          C42   1.354       .  A
N40         C379   1.432       .  S
C42          H43   1.082       .  S
O47          C63   1.273       .  A
O47         Zn53   2.017   1_455  S
C48          O64   1.279       .  A
C48          O61   1.270       .  A
C48         C296   1.496       .  S
O49         C446   1.273   1_456  A
O49         Cd56   2.070   1_455  S
O50          C68   1.273       .  A
O50        Cd443   2.059       .  S
O51          C65   1.276   1_455  A
O51         Cd55   2.084       .  S
O52          C63   1.274       .  A
O52         Cd55   2.065       .  S
Zn53         O66   2.078       .  S
Zn53        O832   2.053       .  S
Zn53         O58   1.948       .  S
O54         C833   1.274       .  A
O54         Cd59   2.076       .  S
Cd55        O441   2.050   1_545  S
Cd55         O58   1.995   1_455  S
Cd56         O60   2.063   1_655  S
Cd56        O837   2.067       .  S
Cd56        O442   2.002       .  S
O57          C67   1.272       .  A
O57        Cd439   2.050       .  S
O58        Cd440   2.002   1_545  S
O58        Cd827   1.993       .  S
Cd59         O61   2.042       .  S
Cd59        O434   2.059   1_545  S
Cd59        O826   1.993       .  S
O60          C67   1.274       .  A
C62          O66   1.284   1_564  A
C62         O433   1.273   1_654  A
C62         C876   1.484   1_655  S
C63         C286   1.491       .  S
O64        Zn821   2.053       .  S
C65         O822   1.274       .  A
C65         C326   1.490       .  S
C67         C306   1.472       .  S
C68          O69   1.274       .  A
C68         C319   1.467       .  S
O69        Cd824   2.067       .  S
C70          C72   1.539       .  S
C70          C74   1.531       .  S
C70          C73   1.557       .  S
C70         C299   1.548       .  S
C71          C75   1.553       .  S
C71          C77   1.544       .  S
C71          C76   1.525       .  S
C71         C309   1.537       .  S
C72          C80   1.376       .  A
C72          C75   1.404       .  A
C73          C84   1.392       .  A
C73          C76   1.393       .  A
C74          C88   1.375       .  A
C74          C77   1.391       .  A
C75          C78   1.382       .  A
C76          C82   1.371       .  A
C77          C85   1.383       .  A
C78          N79   1.355       .  A
C78          H91   1.071       .  S
N79          C80   1.352       .  A
N79         C316   1.439       .  S
C80          H81   1.091       .  S
C82          N83   1.348       .  A
C82          H92   1.082       .  S
N83          C84   1.361       .  A
N83         C336   1.435       .  S
C84          H90   1.082       .  S
C85          N86   1.355       .  A
C85          H87   1.082       .  S
N86          C88   1.355       .  A
N86         C289   1.435       .  S
C88          H89   1.081       .  S
O93         C109   1.283       .  A
O93        Zn867   2.079       .  S
C94         O110   1.277       .  A
C94         O107   1.277       .  A
C94         C276   1.493       .  S
O95         C108   1.274   1_545  A
O95        Cd102   2.068       .  S
O96         C114   1.274       .  A
O96        Cd105   2.067   1_545  S
O97         C879   1.278   1_545  A
O97        Cd101   2.101   1_545  S
O98         C109   1.277       .  A
O98        Cd485   2.076       .  S
Zn99        O110   2.053       .  S
Zn99        O112   2.084       .  S
Zn99        O861   2.079       .  S
Zn99        O488   1.965       .  S
O100        C111   1.275       .  A
O100       Cd105   2.080       .  S
Cd101       O103   2.081   1_565  S
Cd101       O482   2.076       .  S
Cd101       O872   2.002       .  S
Cd102       O115   2.078       .  S
Cd102       O874   2.088       .  S
Cd102       O104   2.008   1_545  S
O103        C113   1.277       .  A
O104       Zn483   1.965       .  S
O104       Cd105   2.003       .  S
O104       Cd869   2.002       .  S
Cd105       O491   2.079       .  S
O106        C113   1.276       .  A
O106       Cd870   2.088       .  S
O107       Cd489   2.079       .  S
C108        O496   1.285       .  A
C108        C830   1.484       .  S
C109        C256   1.491       .  S
C111        O865   1.278   1_565  A
C111        C236   1.490   1_565  S
O112        C492   1.285       .  A
C113        C249   1.486       .  S
C114        O115   1.276       .  A
C114        C266   1.487       .  S
C116        C118   1.557       .  S
C116        C120   1.553       .  S
C116        C119   1.534       .  S
C116        C259   1.561       .  S
C117        C121   1.554       .  S
C117        C123   1.556       .  S
C117        C122   1.534       .  S
C117        C269   1.556       .  S
C118        C126   1.385       .  A
C118        C121   1.404       .  A
C119        C130   1.376       .  A
C119        C122   1.393       .  A
C120        C134   1.387       .  A
C120        C123   1.402       .  A
C121        C124   1.387       .  A
C122        C128   1.379       .  A
C123        C131   1.386       .  A
C124        N125   1.358       .  A
C124        H137   1.079       .  S
N125        C126   1.356       .  A
N125        C279   1.446       .  S
C126        H127   1.080       .  S
C128        N129   1.359       .  A
C128        H138   1.082       .  S
N129        C130   1.357       .  A
N129        C226   1.438       .  S
C130        H136   1.082       .  S
C131        N132   1.354       .  A
C131        H133   1.079       .  S
N132        C134   1.357       .  A
N132        C246   1.443       .  S
C134        H135   1.081       .  S
C139        C141   1.556       .  S
C139        C142   1.548       .  S
C139        C206   1.550       .  S
C139        C911   1.554       .  S
C140        C145   1.545       .  S
C140        C196   1.545       .  S
C140        C912   1.539   1_455  S
C140        C530   1.524       .  S
C141        C533   1.386       .  A
C141        C528   1.398   1_545  A
C142        C153   1.384       .  A
C142       C1297   1.398       .  A
C143        C907   1.554   1_455  S
C143        C157   1.385       .  A
C143        C146   1.392       .  A
C144        C908   1.539       .  S
C144        C147   1.377       .  A
C144        C525   1.398       .  A
C145        C151   1.381       .  A
C145       C1294   1.398   1_455  A
C146        C524   1.524   1_545  S
C146        C154   1.374       .  A
C147        N148   1.354       .  A
C147        H160   1.082       .  S
N148        C149   1.357       .  A
N148        C219   1.438       .  S
C149        C525   1.386       .  A
C149        H534   1.080       .  S
H150        C533   1.080       .  S
C151       N1304   1.357   1_455  A
C151        H161   1.082       .  S
N152        C153   1.363       .  A
N152       C1303   1.357   1_545  A
N152        C239   1.448       .  S
C153        H159   1.082       .  S
C154        N155   1.351       .  A
C154        H156   1.082       .  S
N155        C157   1.355       .  A
N155        C186   1.433       .  S
C157        H158   1.080       .  S
O162        C178   1.273       .  A
O162       Zn168   2.009       .  S
C163        O179   1.277       .  A
C163        O176   1.272       .  A
C163        C209   1.485       .  S
O164        C177   1.280       .  A
O164       Cd171   2.098       .  S
O165        C183   1.275       .  A
O165       Cd174   2.064       .  S
O166        C180   1.276       .  A
O166       Cd170   2.086       .  S
O167        C178   1.275       .  A
O167       Cd170   2.065       .  S
Zn168       O179   2.047       .  S
Zn168       O181   2.029       .  S
Zn168       O173   1.957       .  S
O169        C180   1.273       .  A
O169       Cd174   2.069       .  S
Cd170       O172   2.071       .  S
Cd170       O173   1.997       .  S
Cd171       O175   2.079       .  S
Cd171       O184   2.090       .  S
Cd171       O173   2.000       .  S
O172        C182   1.274       .  A
O173       Cd174   1.982       .  S
Cd174       O176   2.046       .  S
O175        C182   1.277       .  A
C177        O181   1.276       .  A
C178        C189   1.476       .  S
C180        C229   1.483       .  S
C182        C199   1.478       .  S
C183        O184   1.277       .  A
C183        C216   1.495       .  S
C185        C186   1.407       .  A
C185        C190   1.402       .  A
C185       Br192   1.927       .  S
C186        C187   1.402       .  A
C187        C188   1.409       .  A
C187       Br194   1.923       .  S
C188        C189   1.415       .  A
C188       Br193   1.929       .  S
C189        C190   1.411       .  A
C190       Br191   1.931       .  S
C195        C196   1.426       .  A
C195        C200   1.407       .  A
C195       Br202   1.938       .  S
C196        C197   1.420       .  A
C197        C198   1.410       .  A
C197       Br204   1.933       .  S
C198        C199   1.409       .  A
C198       Br203   1.932       .  S
C199        C200   1.405       .  A
C200       Br201   1.933       .  S
C205        C206   1.414       .  A
C205        C210   1.415       .  A
C205       Br212   1.932       .  S
C206        C207   1.408       .  A
C207        C208   1.402       .  A
C207       Br214   1.927       .  S
C208        C209   1.412       .  A
C208       Br213   1.932       .  S
C209        C210   1.416       .  A
C210       Br211   1.930       .  S
C215        C216   1.421       .  A
C215        C220   1.413       .  A
C215       Br222   1.931       .  S
C216        C217   1.420       .  A
C217        C218   1.405       .  A
C217       Br224   1.935       .  S
C218        C219   1.405       .  A
C218       Br223   1.930       .  S
C219        C220   1.403       .  A
C220       Br221   1.926       .  S
C225        C226   1.407       .  A
C225        C230   1.408       .  A
C225       Br232   1.926       .  S
C226        C227   1.408       .  A
C227        C228   1.408       .  A
C227       Br234   1.927       .  S
C228        C229   1.412       .  A
C228       Br233   1.927       .  S
C229        C230   1.412       .  A
C230       Br231   1.928       .  S
C235        C236   1.410   1_565  A
C235        C240   1.411       .  A
C235       Br242   1.930       .  S
C236       C1005   1.413       .  A
C237        C238   1.413       .  A
C237       C1004   1.413       .  A
C237       Br244   1.927       .  S
C238       C1007   1.412       .  A
C238       Br243   1.928       .  S
C239        C240   1.413   1_545  A
C239       C1006   1.412       .  A
C240       Br241   1.925       .  S
C245        C246   1.410       .  A
C245        C250   1.406       .  A
C245       Br252   1.923       .  S
C246        C247   1.406       .  A
C247        C248   1.415       .  A
C247       Br254   1.922       .  S
C248        C249   1.414       .  A
C248       Br253   1.924       .  S
C249        C250   1.409       .  A
C250       Br251   1.929       .  S
C255        C256   1.411       .  A
C255        C260   1.415       .  A
C255       Br262   1.932       .  S
C256        C257   1.411       .  A
C257        C258   1.411       .  A
C257       Br264   1.929       .  S
C258        C259   1.417       .  A
C258       Br263   1.928       .  S
C259        C260   1.418       .  A
C260       Br261   1.925       .  S
C265        C266   1.414       .  A
C265        C270   1.411       .  A
C265       Br272   1.936       .  S
C266        C267   1.414       .  A
C267        C268   1.408       .  A
C267       Br274   1.929       .  S
C268        C269   1.412       .  A
C268       Br273   1.930       .  S
C269        C270   1.415       .  A
C270       Br271   1.920       .  S
C275        C276   1.418       .  A
C275        C280   1.417       .  A
C275       Br282   1.928       .  S
C276        C277   1.411       .  A
C277        C278   1.405       .  A
C277       Br284   1.933       .  S
C278        C279   1.411       .  A
C278       Br283   1.924       .  S
C279        C280   1.407       .  A
C280       Br281   1.923       .  S
C285        C286   1.422       .  A
C285        C290   1.411       .  A
C285       Br292   1.929       .  S
C286        C287   1.417       .  A
C287        C288   1.402       .  A
C287       Br294   1.930       .  S
C288        C289   1.403       .  A
C288       Br293   1.922       .  S
C289        C290   1.400       .  A
C290       Br291   1.924       .  S
C295        C296   1.413       .  A
C295        C300   1.416       .  A
C295       Br302   1.937       .  S
C296        C297   1.418       .  A
C297        C298   1.403       .  A
C297       Br304   1.938       .  S
C298        C299   1.413       .  A
C298       Br303   1.932       .  S
C299        C300   1.431       .  A
C300       Br301   1.940       .  S
C305        C306   1.411       .  A
C305        C310   1.405       .  A
C305       Br312   1.932       .  S
C306        C307   1.412       .  A
C307        C308   1.402       .  A
C307       Br314   1.931       .  S
C308        C309   1.415       .  A
C308       Br313   1.938       .  S
C309        C310   1.413       .  A
C310       Br311   1.933       .  S
C315        C316   1.416       .  A
C315        C320   1.404       .  A
C315       Br322   1.929       .  S
C316        C317   1.409       .  A
C317        C318   1.407       .  A
C317       Br324   1.926       .  S
C318        C319   1.407       .  A
C318       Br323   1.929       .  S
C319        C320   1.404       .  A
C320       Br321   1.932       .  S
C325        C330   1.407       .  A
C325       C1094   1.415       .  A
C325       Br332   1.923       .  S
C326       C1093   1.415       .  A
C326        C711   1.417   1_545  A
C327        C328   1.410       .  A
C327        C710   1.417       .  A
C327       Br334   1.930       .  S
C328        C329   1.404       .  A
C328       Br333   1.925       .  S
C329       C1482   1.403   1_655  A
C330       C1481   1.403       .  A
C330       Br331   1.926       .  S
C335        C336   1.403       .  A
C335        C340   1.408       .  A
C335       Br342   1.922       .  S
C336        C337   1.405       .  A
C337        C338   1.406       .  A
C337       Br344   1.920       .  S
C338        C339   1.414       .  A
C338       Br343   1.931       .  S
C339        C340   1.414       .  A
C340       Br341   1.929       .  S
C345        C346   1.428       .  A
C345        C350   1.410       .  A
C345       Br352   1.941       .  S
C346        C347   1.412       .  A
C347        C348   1.396       .  A
C347       Br354   1.931       .  S
C348        C349   1.412       .  A
C348       Br353   1.935       .  S
C349        C350   1.411       .  A
C350       Br351   1.936       .  S
C355        C356   1.414       .  A
C355        C360   1.399       .  A
C355       Br362   1.937       .  S
C356        C357   1.415       .  A
C357        C358   1.408       .  A
C357       Br364   1.940       .  S
C358        C359   1.427       .  A
C358       Br363   1.944       .  S
C359        C360   1.415       .  A
C360       Br361   1.935       .  S
C365        C366   1.414       .  A
C365        C370   1.403       .  A
C365       Br372   1.929       .  S
C366        C367   1.410       .  A
C367        C368   1.401       .  A
C367       Br374   1.928       .  S
C368        C369   1.404       .  A
C368       Br373   1.932       .  S
C369        C370   1.404       .  A
C370       Br371   1.932       .  S
C375        C376   1.403       .  A
C375        C380   1.401       .  A
C375       Br382   1.931       .  S
C376        C377   1.408       .  A
C377        C378   1.405       .  A
C377       Br384   1.929       .  S
C378        C379   1.411       .  A
C378       Br383   1.930       .  S
C379        C380   1.411       .  A
C380       Br381   1.928       .  S
O385        C401   1.270       .  A
O385       Zn391   2.000       .  S
C386        O402   1.268       .  A
C386        O399   1.271       .  A
C386        C753   1.455       .  S
O387        C400   1.279       .  A
O387       Cd394   2.097       .  S
O388        C406   1.272       .  A
O388       Cd397   2.043       .  S
O389        C403   1.272       .  A
O389       Cd393   2.065       .  S
O390        C401   1.271       .  A
O390       Cd393   2.046       .  S
Zn391       O402   1.975       .  S
Zn391       O404   2.025       .  S
Zn391       O396   1.932       .  S
O392        C403   1.273       .  A
O392       Cd397   2.070       .  S
Cd393       O395   2.043       .  S
Cd393       O396   1.987       .  S
Cd394       O398   2.068       .  S
Cd394       O407   2.071       .  S
Cd394       O396   1.995       .  S
O395        C405   1.271       .  A
O396       Cd397   1.985       .  S
Cd397       O399   2.051       .  S
O398        C405   1.275       .  A
C400        O404   1.275       .  A
C400        C561   1.479       .  S
C401        C740   1.483       .  S
C403        C723   1.482       .  S
C405        C760   1.461       .  S
C406        O407   1.275       .  A
C406        C733   1.480       .  S
C408       C1178   1.532   1_455  S
C408        C411   1.551       .  S
C408        C743   1.535       .  S
C409       C1183   1.523       .  S
C409        C414   1.552       .  S
C409        C730   1.533       .  S
C410       C1176   1.532       .  S
C410        C418   1.376       .  A
C410        C413   1.400   1_565  A
C411        C422   1.382       .  A
C411        C798   1.403   1_465  A
C412        C426   1.378       .  A
C412        C415   1.386       .  A
C413        C416   1.379   1_545  A
C414        C795   1.403       .  A
C414        C420   1.380       .  A
C415       C1177   1.523   1_455  S
C415        C423   1.372       .  A
C416        N417   1.351       .  A
C416        H429   1.082   1_565  S
N417        C418   1.349       .  A
N417        C750   1.433       .  S
C418        H419   1.082       .  S
C420        N805   1.354       .  A
C420        H430   1.081       .  S
N421        C804   1.354       .  A
N421        C422   1.355   1_645  A
N421        C713   1.435       .  S
C422        H428   1.082       .  S
C423        N424   1.351       .  A
C423        H425   1.082       .  S
N424        C426   1.354       .  A
N424        C763   1.432       .  S
C426        H427   1.082       .  S
O431        C447   1.273       .  A
O431       Zn437   2.017   1_455  S
C432        O448   1.279       .  A
C432        O445   1.270       .  A
C432        C680   1.496       .  S
O433       Cd440   2.070   1_455  S
O434        C452   1.273       .  A
O435        C449   1.276   1_455  A
O435       Cd439   2.084       .  S
O436        C447   1.274       .  A
O436       Cd439   2.065       .  S
Zn437      O1216   2.053       .  S
Zn437       O450   2.078       .  S
Zn437       O442   1.948       .  S
O438       C1217   1.274       .  A
O438       Cd443   2.076       .  S
Cd439       O442   1.995   1_455  S
Cd440       O444   2.063   1_655  S
Cd440      O1221   2.067       .  S
O441        C451   1.272       .  A
O442      Cd1211   1.993       .  S
Cd443       O445   2.042       .  S
Cd443      O1210   1.993       .  S
O444        C451   1.274       .  A
C446        O450   1.284   1_554  A
C446       C1260   1.484   1_655  S
C447        C670   1.491       .  S
O448      Zn1205   2.053       .  S
C449       O1206   1.274       .  A
C449        C710   1.490       .  S
C451        C690   1.472       .  S
C452        O453   1.274       .  A
C452        C703   1.467       .  S
O453      Cd1208   2.067       .  S
C454        C456   1.539       .  S
C454        C458   1.531       .  S
C454        C457   1.557       .  S
C454        C683   1.548       .  S
C455        C459   1.553       .  S
C455        C461   1.544       .  S
C455        C460   1.525       .  S
C455        C693   1.537       .  S
C456        C464   1.376       .  A
C456        C459   1.404       .  A
C457        C468   1.392       .  A
C457        C460   1.393       .  A
C458        C472   1.375       .  A
C458        C461   1.391       .  A
C459        C462   1.382       .  A
C460        C466   1.371       .  A
C461        C469   1.383       .  A
C462        N463   1.355       .  A
C462        H475   1.071       .  S
N463        C464   1.352       .  A
N463        C700   1.439       .  S
C464        H465   1.091       .  S
C466        N467   1.348       .  A
C466        H476   1.082       .  S
N467        C468   1.361       .  A
N467        C720   1.435       .  S
C468        H474   1.082       .  S
C469        N470   1.355       .  A
C469        H471   1.082       .  S
N470        C472   1.355       .  A
N470        C673   1.435       .  S
C472        H473   1.081       .  S
O477        C493   1.283       .  A
O477      Zn1251   2.079       .  S
C478        O494   1.277       .  A
C478        O491   1.277       .  A
C478        C660   1.493       .  S
O479        C492   1.274       .  A
O479       Cd486   2.068       .  S
O480        C498   1.274       .  A
O480       Cd489   2.067       .  S
O481       C1263   1.278       .  A
O481       Cd485   2.101       .  S
O482        C493   1.277       .  A
Zn483      O1245   2.079       .  S
Zn483       O494   2.053       .  S
Zn483       O496   2.084       .  S
O484        C495   1.275       .  A
O484       Cd489   2.080       .  S
Cd485       O487   2.081       .  S
Cd485      O1256   2.002       .  S
Cd486      O1258   2.088       .  S
Cd486       O499   2.078       .  S
Cd486       O488   2.008       .  S
O487        C497   1.277       .  A
O488      Cd1253   2.002       .  S
O488       Cd489   2.003       .  S
O490        C497   1.276       .  A
O490      Cd1254   2.088       .  S
C492       C1214   1.484       .  S
C493        C640   1.491       .  S
C495       O1249   1.278       .  A
C495        C620   1.490       .  S
C497        C633   1.486       .  S
C498        O499   1.276       .  A
C498        C650   1.487       .  S
C500        C502   1.557       .  S
C500        C504   1.553       .  S
C500        C503   1.534       .  S
C500        C643   1.561       .  S
C501        C505   1.554       .  S
C501        C507   1.556       .  S
C501        C506   1.534       .  S
C501        C653   1.556       .  S
C502        C510   1.385       .  A
C502        C505   1.404       .  A
C503        C514   1.376       .  A
C503        C506   1.393       .  A
C504        C518   1.387       .  A
C504        C507   1.402       .  A
C505        C508   1.387       .  A
C506        C512   1.379       .  A
C507        C515   1.386       .  A
C508        N509   1.358       .  A
C508        H521   1.079       .  S
N509        C510   1.356       .  A
N509        C663   1.446       .  S
C510        H511   1.080       .  S
C512        N513   1.359       .  A
C512        H522   1.082       .  S
N513        C514   1.357       .  A
N513        C610   1.438       .  S
C514        H520   1.082       .  S
C515        N516   1.354       .  A
C515        H517   1.079       .  S
N516        C518   1.357       .  A
N516        C630   1.443       .  S
C518        H519   1.081       .  S
C523        C525   1.556       .  S
C523       C1295   1.554       .  S
C523        C526   1.548       .  S
C523        C590   1.550       .  S
C524       C1296   1.539   1_455  S
C524        C529   1.545   1_565  S
C524        C580   1.545       .  S
C526        C537   1.384       .  A
C526        C913   1.398       .  A
C527       C1291   1.554   1_455  S
C527        C541   1.385       .  A
C527        C530   1.392       .  A
C528       C1292   1.539       .  S
C528        C531   1.377       .  A
C529        C910   1.398   1_455  A
C529        C535   1.381   1_545  A
C530        C538   1.374       .  A
C531        N532   1.354       .  A
C531        H544   1.082       .  S
N532        C533   1.357   1_565  A
N532        C603   1.438       .  S
C535        N920   1.357   1_465  A
C535        H545   1.082       .  S
N536        C919   1.357       .  A
N536        C537   1.363       .  A
N536        C623   1.448       .  S
C537        H543   1.082       .  S
C538        N539   1.351       .  A
C538        H540   1.082       .  S
N539        C541   1.355       .  A
N539        C570   1.433       .  S
C541        H542   1.080       .  S
O546        C562   1.273       .  A
O546       Zn552   2.009       .  S
C547        O563   1.277       .  A
C547        O560   1.272       .  A
C547        C593   1.485       .  S
O548        C561   1.280       .  A
O548       Cd555   2.098       .  S
O549        C567   1.274       .  A
O549       Cd558   2.064       .  S
O550        C564   1.276       .  A
O550       Cd554   2.086       .  S
O551        C562   1.275       .  A
O551       Cd554   2.065       .  S
Zn552       O563   2.047       .  S
Zn552       O565   2.029       .  S
Zn552       O557   1.957       .  S
O553        C564   1.273       .  A
O553       Cd558   2.069       .  S
Cd554       O556   2.071       .  S
Cd554       O557   1.997       .  S
Cd555       O559   2.079       .  S
Cd555       O568   2.090       .  S
Cd555       O557   2.000       .  S
O556        C566   1.274       .  A
O557       Cd558   1.982       .  S
Cd558       O560   2.046       .  S
O559        C566   1.277       .  A
C561        O565   1.276       .  A
C562        C573   1.477       .  S
C564        C613   1.483       .  S
C566        C583   1.478       .  S
C567        O568   1.277       .  A
C567        C600   1.495       .  S
C569        C570   1.407       .  A
C569        C574   1.402       .  A
C569       Br576   1.927       .  S
C570        C571   1.402       .  A
C571        C572   1.409       .  A
C571       Br578   1.923       .  S
C572        C573   1.415       .  A
C572       Br577   1.929       .  S
C573        C574   1.411       .  A
C574       Br575   1.931       .  S
C579        C580   1.426       .  A
C579        C584   1.407       .  A
C579       Br586   1.938       .  S
C580        C581   1.420       .  A
C581        C582   1.410       .  A
C581       Br588   1.933       .  S
C582        C583   1.409       .  A
C582       Br587   1.932       .  S
C583        C584   1.405       .  A
C584       Br585   1.933       .  S
C589        C590   1.414       .  A
C589        C594   1.415       .  A
C589       Br596   1.932       .  S
C590        C591   1.409       .  A
C591        C592   1.402       .  A
C591       Br598   1.927       .  S
C592        C593   1.412       .  A
C592       Br597   1.932       .  S
C593        C594   1.416       .  A
C594       Br595   1.930       .  S
C599        C600   1.421       .  A
C599        C604   1.413       .  A
C599       Br606   1.931       .  S
C600        C601   1.420       .  A
C601        C602   1.405       .  A
C601       Br608   1.935       .  S
C602        C603   1.405       .  A
C602       Br607   1.930       .  S
C603        C604   1.403       .  A
C604       Br605   1.926       .  S
C609        C610   1.407       .  A
C609        C614   1.408       .  A
C609       Br616   1.926       .  S
C610        C611   1.408       .  A
C611        C612   1.408       .  A
C611       Br618   1.927       .  S
C612        C613   1.413       .  A
C612       Br617   1.927       .  S
C613        C614   1.412       .  A
C614       Br615   1.928       .  S
C619        C620   1.410       .  A
C619        C624   1.411       .  A
C619       Br626   1.930       .  S
C620       C1389   1.413       .  A
C621       C1388   1.413       .  A
C621        C622   1.413       .  A
C621       Br628   1.927       .  S
C622       C1391   1.412       .  A
C622       Br627   1.928       .  S
C623       C1390   1.412       .  A
C623        C624   1.413       .  A
C624       Br625   1.925       .  S
C629        C630   1.410       .  A
C629        C634   1.406       .  A
C629       Br636   1.923       .  S
C630        C631   1.406       .  A
C631        C632   1.415       .  A
C631       Br638   1.922       .  S
C632        C633   1.414       .  A
C632       Br637   1.924       .  S
C633        C634   1.409       .  A
C634       Br635   1.929       .  S
C639        C640   1.411       .  A
C639        C644   1.415       .  A
C639       Br646   1.932       .  S
C640        C641   1.411       .  A
C641        C642   1.411       .  A
C641       Br648   1.929       .  S
C642        C643   1.417       .  A
C642       Br647   1.928       .  S
C643        C644   1.418       .  A
C644       Br645   1.925       .  S
C649        C650   1.414       .  A
C649        C654   1.411       .  A
C649       Br656   1.936       .  S
C650        C651   1.414       .  A
C651        C652   1.408       .  A
C651       Br658   1.929       .  S
C652        C653   1.412       .  A
C652       Br657   1.930       .  S
C653        C654   1.415       .  A
C654       Br655   1.920       .  S
C659        C660   1.418       .  A
C659        C664   1.417       .  A
C659       Br666   1.928       .  S
C660        C661   1.411       .  A
C661        C662   1.405       .  A
C661       Br668   1.933       .  S
C662        C663   1.411       .  A
C662       Br667   1.924       .  S
C663        C664   1.407       .  A
C664       Br665   1.923       .  S
C669        C670   1.422       .  A
C669        C674   1.411       .  A
C669       Br676   1.929       .  S
C670        C671   1.417       .  A
C671        C672   1.402       .  A
C671       Br678   1.930       .  S
C672        C673   1.403       .  A
C672       Br677   1.922       .  S
C673        C674   1.400       .  A
C674       Br675   1.924       .  S
C679        C680   1.413       .  A
C679        C684   1.416       .  A
C679       Br686   1.937       .  S
C680        C681   1.418       .  A
C681        C682   1.403       .  A
C681       Br688   1.938       .  S
C682        C683   1.413       .  A
C682       Br687   1.932       .  S
C683        C684   1.431       .  A
C684       Br685   1.940       .  S
C689        C690   1.411       .  A
C689        C694   1.405       .  A
C689       Br696   1.932       .  S
C690        C691   1.412       .  A
C691        C692   1.402       .  A
C691       Br698   1.931       .  S
C692        C693   1.415       .  A
C692       Br697   1.938       .  S
C693        C694   1.413       .  A
C694       Br695   1.933       .  S
C699        C700   1.416       .  A
C699        C704   1.404       .  A
C699       Br706   1.929       .  S
C700        C701   1.409       .  A
C701        C702   1.407       .  A
C701       Br708   1.926       .  S
C702        C703   1.407       .  A
C702       Br707   1.929       .  S
C703        C704   1.404       .  A
C704       Br705   1.932       .  S
C709       C1478   1.415       .  A
C709        C714   1.407       .  A
C709       Br716   1.923       .  S
C710       C1477   1.415       .  A
C711        C712   1.410       .  A
C711       Br718   1.930       .  S
C712        C713   1.404   1_565  A
C712       Br717   1.925       .  S
C713       C1098   1.403   1_655  A
C714       C1097   1.403       .  A
C714       Br715   1.926       .  S
C719        C720   1.403       .  A
C719        C724   1.408       .  A
C719       Br726   1.922       .  S
C720        C721   1.405       .  A
C721        C722   1.406       .  A
C721       Br728   1.920       .  S
C722        C723   1.414       .  A
C722       Br727   1.931       .  S
C723        C724   1.414       .  A
C724       Br725   1.929       .  S
C729        C730   1.428       .  A
C729        C734   1.410       .  A
C729       Br736   1.941       .  S
C730        C731   1.412       .  A
C731        C732   1.396       .  A
C731       Br738   1.931       .  S
C732        C733   1.412       .  A
C732       Br737   1.935       .  S
C733        C734   1.411       .  A
C734       Br735   1.936       .  S
C739        C740   1.414       .  A
C739        C744   1.399       .  A
C739       Br746   1.937       .  S
C740        C741   1.415       .  A
C741        C742   1.408       .  A
C741       Br748   1.941       .  S
C742        C743   1.427       .  A
C742       Br747   1.944       .  S
C743        C744   1.415       .  A
C744       Br745   1.935       .  S
C749        C750   1.414       .  A
C749        C754   1.403       .  A
C749       Br756   1.929       .  S
C750        C751   1.410       .  A
C751        C752   1.401       .  A
C751       Br758   1.928       .  S
C752        C753   1.404       .  A
C752       Br757   1.932       .  S
C753        C754   1.404       .  A
C754       Br755   1.932       .  S
C759        C760   1.403       .  A
C759        C764   1.401       .  A
C759       Br766   1.931       .  S
C760        C761   1.408       .  A
C761        C762   1.405       .  A
C761       Br768   1.929       .  S
C762        C763   1.411       .  A
C762       Br767   1.930       .  S
C763        C764   1.411       .  A
C764       Br765   1.928       .  S
O769        C785   1.270       .  A
O769       Zn775   2.000       .  S
C770        O786   1.268       .  A
C770        O783   1.271       .  A
C770       C1137   1.455       .  S
O771        C784   1.279       .  A
O771       Cd778   2.097       .  S
O772        C790   1.272       .  A
O772       Cd781   2.043       .  S
O773        C787   1.272       .  A
O773       Cd777   2.065       .  S
O774        C785   1.271       .  A
O774       Cd777   2.046       .  S
Zn775       O786   1.975       .  S
Zn775       O788   2.025       .  S
Zn775       O780   1.932       .  S
O776        C787   1.273       .  A
O776       Cd781   2.070       .  S
Cd777       O779   2.042       .  S
Cd777       O780   1.987       .  S
Cd778       O782   2.068       .  S
Cd778       O791   2.071       .  S
Cd778       O780   1.995       .  S
O779        C789   1.271       .  A
O780       Cd781   1.985       .  S
Cd781       O783   2.051       .  S
O782        C789   1.275       .  A
C784        O788   1.275       .  A
C784        C945   1.479       .  S
C785       C1124   1.483       .  S
C787       C1107   1.482       .  S
C789       C1144   1.461       .  S
C790        O791   1.275       .  A
C790       C1117   1.480       .  S
C792       C1180   1.531       .  S
C792        C795   1.551       .  S
C792       C1127   1.535       .  S
C793       C1181   1.532       .  S
C793        C798   1.552       .  S
C793       C1114   1.533       .  S
C794        C802   1.376       .  A
C794        C797   1.400       .  A
C795        C806   1.382       .  A
C796       C1176   1.531   1_545  S
C796        C810   1.378       .  A
C796        C799   1.386       .  A
C797       C1177   1.532       .  S
C797        C800   1.379       .  A
C798        C804   1.380       .  A
C799        C807   1.372       .  A
C800        N801   1.351       .  A
C800        H813   1.082       .  S
N801        C802   1.349       .  A
N801       C1134   1.433       .  S
C802        H803   1.082       .  S
C804        H814   1.081       .  S
N805        C806   1.355       .  A
N805       C1097   1.435       .  S
C806        H812   1.082       .  S
C807        N808   1.351       .  A
C807        H809   1.082       .  S
N808        C810   1.354       .  A
N808       C1147   1.432       .  S
C810        H811   1.082       .  S
O815        C831   1.273       .  A
O815       Zn821   2.017       .  S
C816        O832   1.279       .  A
C816        O829   1.270       .  A
C816       C1064   1.496       .  S
O817       C1214   1.273   1_556  A
O817       Cd824   2.070       .  S
O818        C836   1.273       .  A
O818      Cd1211   2.059       .  S
O819        C833   1.276       .  A
O819       Cd823   2.084       .  S
O820        C831   1.274       .  A
O820       Cd823   2.065       .  S
Zn821       O834   2.078       .  S
Zn821       O826   1.948       .  S
O822       Cd827   2.076       .  S
Cd823      O1209   2.050   1_545  S
Cd823       O826   1.995       .  S
Cd824       O828   2.063       .  S
Cd824      O1210   2.002       .  S
O825        C835   1.272       .  A
O825      Cd1207   2.050       .  S
O826      Cd1208   2.002   1_545  S
Cd827      O1202   2.059   1_545  S
Cd827       O829   2.042       .  S
O828        C835   1.274       .  A
C830       O1201   1.273   1_554  A
C830        O834   1.284   1_564  A
C831       C1054   1.491       .  S
C833       C1094   1.490       .  S
C835       C1074   1.472       .  S
C836        O837   1.274       .  A
C836       C1087   1.467       .  S
C838        C840   1.539       .  S
C838        C842   1.531       .  S
C838        C841   1.557       .  S
C838       C1067   1.548       .  S
C839        C843   1.553       .  S
C839        C845   1.544       .  S
C839        C844   1.525       .  S
C839       C1077   1.537       .  S
C840        C848   1.376       .  A
C840        C843   1.404       .  A
C841        C852   1.392       .  A
C841        C844   1.393       .  A
C842        C856   1.375       .  A
C842        C845   1.391       .  A
C843        C846   1.382       .  A
C844        C850   1.371       .  A
C845        C853   1.383       .  A
C846        N847   1.355       .  A
C846        H859   1.071       .  S
N847        C848   1.352       .  A
N847       C1084   1.439       .  S
C848        H849   1.091       .  S
C850        N851   1.348       .  A
C850        H860   1.082       .  S
N851        C852   1.361       .  A
N851       C1104   1.435       .  S
C852        H858   1.082       .  S
C853        N854   1.355       .  A
C853        H855   1.082       .  S
N854        C856   1.355       .  A
N854       C1057   1.435       .  S
C856        H857   1.081       .  S
O861        C877   1.283       .  A
C862        O878   1.277       .  A
C862        O875   1.277       .  A
C862       C1044   1.493       .  S
O863        C876   1.274   1_645  A
O863       Cd870   2.068   1_655  S
O864        C882   1.274       .  A
O864       Cd873   2.067   1_545  S
O865       Cd869   2.101   1_545  S
O866        C877   1.277       .  A
O866      Cd1253   2.076       .  S
Zn867       O878   2.053   1_455  S
Zn867       O880   2.084       .  S
Zn867      O1256   1.965       .  S
O868        C879   1.275   1_655  A
O868       Cd873   2.080       .  S
Cd869      O1250   2.076       .  S
Cd869       O871   2.081   1_565  S
Cd870       O883   2.078   1_455  S
Cd870       O872   2.008   1_545  S
O871        C881   1.277       .  A
O872      Zn1251   1.965       .  S
O872       Cd873   2.003   1_455  S
Cd873      O1259   2.079       .  S
O874        C881   1.276       .  A
O875      Cd1257   2.079       .  S
C876       O1264   1.285       .  A
C877       C1024   1.491       .  S
C879       C1004   1.490   1_565  S
O880       C1260   1.285       .  A
C881       C1017   1.486       .  S
C882        O883   1.276       .  A
C882       C1034   1.487       .  S
C884        C886   1.557       .  S
C884        C888   1.553       .  S
C884        C887   1.534       .  S
C884       C1027   1.561       .  S
C885        C889   1.554       .  S
C885        C891   1.556       .  S
C885        C890   1.534       .  S
C885       C1037   1.556       .  S
C886        C894   1.385       .  A
C886        C889   1.404       .  A
C887        C898   1.376       .  A
C887        C890   1.393       .  A
C888        C902   1.387       .  A
C888        C891   1.402       .  A
C889        C892   1.387       .  A
C890        C896   1.379       .  A
C891        C899   1.386       .  A
C892        N893   1.358       .  A
C892        H905   1.079       .  S
N893        C894   1.356       .  A
N893       C1047   1.446       .  S
C894        H895   1.080       .  S
C896        N897   1.359       .  A
C896        H906   1.082       .  S
N897        C898   1.357       .  A
N897        C994   1.438       .  S
C898        H904   1.082       .  S
C899        N900   1.354       .  A
C899        H901   1.079       .  S
N900        C902   1.357       .  A
N900       C1014   1.443       .  S
C902        H903   1.081       .  S
C907        C909   1.556       .  S
C907        C910   1.548       .  S
C907        C974   1.550       .  S
C908       C1298   1.524       .  S
C908        C913   1.545       .  S
C908        C964   1.545       .  S
C909       C1301   1.386       .  A
C909       C1296   1.398   1_545  A
C910        C921   1.384       .  A
C911        C925   1.385       .  A
C911        C914   1.392       .  A
C912       C1293   1.398       .  A
C912        C915   1.377       .  A
C913        C919   1.381       .  A
C914       C1292   1.524   1_545  S
C914        C922   1.374       .  A
C915        N916   1.354       .  A
C915        H928   1.082       .  S
N916        C917   1.357       .  A
N916        C987   1.438       .  S
C917       C1293   1.386       .  A
C917       H1302   1.080       .  S
H918       C1301   1.080       .  S
C919        H929   1.082       .  S
N920        C921   1.363       .  A
N920       C1007   1.448   1_655  S
C921        H927   1.082       .  S
C922        N923   1.351       .  A
C922        H924   1.082       .  S
N923        C925   1.355       .  A
N923        C954   1.433       .  S
C925        H926   1.080       .  S
O930        C946   1.273       .  A
O930       Zn936   2.009       .  S
C931        O947   1.277       .  A
C931        O944   1.272       .  A
C931        C977   1.485       .  S
O932        C945   1.280       .  A
O932       Cd939   2.098       .  S
O933        C951   1.275       .  A
O933       Cd942   2.064       .  S
O934        C948   1.276       .  A
O934       Cd938   2.086       .  S
O935        C946   1.275       .  A
O935       Cd938   2.065       .  S
Zn936       O947   2.047       .  S
Zn936       O949   2.029       .  S
Zn936       O941   1.957       .  S
O937        C948   1.273       .  A
O937       Cd942   2.069       .  S
Cd938       O940   2.071       .  S
Cd938       O941   1.997       .  S
Cd939       O943   2.079       .  S
Cd939       O952   2.090       .  S
Cd939       O941   2.000       .  S
O940        C950   1.274       .  A
O941       Cd942   1.982       .  S
Cd942       O944   2.046       .  S
O943        C950   1.277       .  A
C945        O949   1.276       .  A
C946        C957   1.476       .  S
C948        C997   1.483       .  S
C950        C967   1.478       .  S
C951        O952   1.277       .  A
C951        C984   1.495       .  S
C953        C954   1.407       .  A
C953        C958   1.402       .  A
C953       Br960   1.927       .  S
C954        C955   1.402       .  A
C955        C956   1.409       .  A
C955       Br962   1.923       .  S
C956        C957   1.415       .  A
C956       Br961   1.929       .  S
C957        C958   1.411       .  A
C958       Br959   1.931       .  S
C963        C964   1.426       .  A
C963        C968   1.407       .  A
C963       Br970   1.938       .  S
C964        C965   1.420       .  A
C965        C966   1.410       .  A
C965       Br972   1.933       .  S
C966        C967   1.409       .  A
C966       Br971   1.932       .  S
C967        C968   1.405       .  A
C968       Br969   1.933       .  S
C973        C974   1.414       .  A
C973        C978   1.415       .  A
C973       Br980   1.932       .  S
C974        C975   1.408       .  A
C975        C976   1.402       .  A
C975       Br982   1.927       .  S
C976        C977   1.412       .  A
C976       Br981   1.932       .  S
C977        C978   1.416       .  A
C978       Br979   1.930       .  S
C983        C984   1.421       .  A
C983        C988   1.413       .  A
C983       Br990   1.931       .  S
C984        C985   1.420       .  A
C985        C986   1.405       .  A
C985       Br992   1.935       .  S
C986        C987   1.405       .  A
C986       Br991   1.930       .  S
C987        C988   1.403       .  A
C988       Br989   1.926       .  S
C993        C994   1.407       .  A
C993        C998   1.408       .  A
C993      Br1000   1.926       .  S
C994        C995   1.408       .  A
C995        C996   1.408       .  A
C995      Br1002   1.927       .  S
C996        C997   1.412       .  A
C996      Br1001   1.927       .  S
C997        C998   1.412       .  A
C998       Br999   1.928       .  S
C1003      C1004   1.410   1_565  A
C1003      C1008   1.411   1_455  A
C1003     Br1010   1.930   1_455  S
C1005      C1006   1.413       .  A
C1005     Br1012   1.927       .  S
C1006     Br1011   1.928       .  S
C1007      C1008   1.413   1_445  A
C1008     Br1009   1.925       .  S
C1013      C1014   1.410       .  A
C1013      C1018   1.406       .  A
C1013     Br1020   1.923       .  S
C1014      C1015   1.406       .  A
C1015      C1016   1.415       .  A
C1015     Br1022   1.922       .  S
C1016      C1017   1.414       .  A
C1016     Br1021   1.924       .  S
C1017      C1018   1.409       .  A
C1018     Br1019   1.929       .  S
C1023      C1024   1.411       .  A
C1023      C1028   1.415       .  A
C1023     Br1030   1.932       .  S
C1024      C1025   1.411       .  A
C1025      C1026   1.411       .  A
C1025     Br1032   1.929       .  S
C1026      C1027   1.417       .  A
C1026     Br1031   1.928       .  S
C1027      C1028   1.418       .  A
C1028     Br1029   1.925       .  S
C1033      C1034   1.414       .  A
C1033      C1038   1.411       .  A
C1033     Br1040   1.936       .  S
C1034      C1035   1.414       .  A
C1035      C1036   1.408       .  A
C1035     Br1042   1.929       .  S
C1036      C1037   1.412       .  A
C1036     Br1041   1.930       .  S
C1037      C1038   1.415       .  A
C1038     Br1039   1.920       .  S
C1043      C1044   1.418       .  A
C1043      C1048   1.417       .  A
C1043     Br1050   1.928       .  S
C1044      C1045   1.411       .  A
C1045      C1046   1.405       .  A
C1045     Br1052   1.933       .  S
C1046      C1047   1.411       .  A
C1046     Br1051   1.924       .  S
C1047      C1048   1.407       .  A
C1048     Br1049   1.923       .  S
C1053      C1054   1.422       .  A
C1053      C1058   1.411       .  A
C1053     Br1060   1.929       .  S
C1054      C1055   1.417       .  A
C1055      C1056   1.402       .  A
C1055     Br1062   1.930       .  S
C1056      C1057   1.403       .  A
C1056     Br1061   1.922       .  S
C1057      C1058   1.400       .  A
C1058     Br1059   1.924       .  S
C1063      C1064   1.413       .  A
C1063      C1068   1.416       .  A
C1063     Br1070   1.937       .  S
C1064      C1065   1.418       .  A
C1065      C1066   1.403       .  A
C1065     Br1072   1.938       .  S
C1066      C1067   1.413       .  A
C1066     Br1071   1.932       .  S
C1067      C1068   1.431       .  A
C1068     Br1069   1.940       .  S
C1073      C1074   1.411       .  A
C1073      C1078   1.405       .  A
C1073     Br1080   1.932       .  S
C1074      C1075   1.412       .  A
C1075      C1076   1.402       .  A
C1075     Br1082   1.931       .  S
C1076      C1077   1.415       .  A
C1076     Br1081   1.938       .  S
C1077      C1078   1.413       .  A
C1078     Br1079   1.933       .  S
C1083      C1084   1.416       .  A
C1083      C1088   1.404       .  A
C1083     Br1090   1.929       .  S
C1084      C1085   1.409       .  A
C1085      C1086   1.407       .  A
C1085     Br1092   1.926       .  S
C1086      C1087   1.407       .  A
C1086     Br1091   1.929       .  S
C1087      C1088   1.404       .  A
C1088     Br1089   1.932       .  S
C1093      C1098   1.407   1_655  A
C1093     Br1100   1.923   1_655  S
C1094      C1479   1.417   1_545  A
C1095      C1478   1.417       .  A
C1095      C1096   1.410       .  A
C1095     Br1102   1.930       .  S
C1096      C1097   1.404       .  A
C1096     Br1101   1.925       .  S
C1098     Br1099   1.926       .  S
C1103      C1104   1.403       .  A
C1103      C1108   1.408       .  A
C1103     Br1110   1.922       .  S
C1104      C1105   1.405       .  A
C1105      C1106   1.406       .  A
C1105     Br1112   1.920       .  S
C1106      C1107   1.414       .  A
C1106     Br1111   1.931       .  S
C1107      C1108   1.414       .  A
C1108     Br1109   1.929       .  S
C1113      C1114   1.428       .  A
C1113      C1118   1.410       .  A
C1113     Br1120   1.941       .  S
C1114      C1115   1.412       .  A
C1115      C1116   1.396       .  A
C1115     Br1122   1.931       .  S
C1116      C1117   1.412       .  A
C1116     Br1121   1.935       .  S
C1117      C1118   1.411       .  A
C1118     Br1119   1.936       .  S
C1123      C1124   1.414       .  A
C1123      C1128   1.399       .  A
C1123     Br1130   1.937       .  S
C1124      C1125   1.415       .  A
C1125      C1126   1.408       .  A
C1125     Br1132   1.940       .  S
C1126      C1127   1.427       .  A
C1126     Br1131   1.944       .  S
C1127      C1128   1.415       .  A
C1128     Br1129   1.935       .  S
C1133      C1134   1.414       .  A
C1133      C1138   1.403       .  A
C1133     Br1140   1.929       .  S
C1134      C1135   1.410       .  A
C1135      C1136   1.401       .  A
C1135     Br1142   1.928       .  S
C1136      C1137   1.404       .  A
C1136     Br1141   1.932       .  S
C1137      C1138   1.404       .  A
C1138     Br1139   1.932       .  S
C1143      C1144   1.403       .  A
C1143      C1148   1.401       .  A
C1143     Br1150   1.931       .  S
C1144      C1145   1.408       .  A
C1145      C1146   1.405       .  A
C1145     Br1152   1.929       .  S
C1146      C1147   1.411       .  A
C1146     Br1151   1.930       .  S
C1147      C1148   1.411       .  A
C1148     Br1149   1.928       .  S
O1153      C1169   1.270       .  A
O1153     Zn1159   2.000       .  S
C1154      O1170   1.268       .  A
C1154      O1167   1.271       .  A
C1154      C1521   1.455       .  S
O1155      C1168   1.279       .  A
O1155     Cd1162   2.097       .  S
O1156      C1174   1.272       .  A
O1156     Cd1165   2.043       .  S
O1157      C1171   1.272       .  A
O1157     Cd1161   2.065       .  S
O1158      C1169   1.271       .  A
O1158     Cd1161   2.046       .  S
Zn1159     O1170   1.975       .  S
Zn1159     O1172   2.025       .  S
Zn1159     O1164   1.932       .  S
O1160      C1171   1.273       .  A
O1160     Cd1165   2.070       .  S
Cd1161     O1163   2.042       .  S
Cd1161     O1164   1.987       .  S
Cd1162     O1166   2.068       .  S
Cd1162     O1175   2.071       .  S
Cd1162     O1164   1.995       .  S
O1163      C1173   1.271       .  A
O1164     Cd1165   1.985       .  S
Cd1165     O1167   2.051       .  S
O1166      C1173   1.275       .  A
C1168      O1172   1.275       .  A
C1168      C1329   1.479       .  S
C1169      C1508   1.483       .  S
C1171      C1491   1.482       .  S
C1173      C1528   1.461       .  S
C1174      O1175   1.275       .  A
C1174      C1501   1.480       .  S
C1176      C1179   1.551       .  S
C1176      C1511   1.535       .  S
C1177      C1182   1.552       .  S
C1177      C1498   1.533       .  S
C1178      C1186   1.376       .  A
C1178      C1181   1.400   1_565  A
C1179      C1190   1.382       .  A
C1180      C1194   1.378       .  A
C1180      C1183   1.386       .  A
C1181      C1184   1.379   1_545  A
C1182      C1188   1.380       .  A
C1183      C1191   1.372       .  A
C1184      N1185   1.351       .  A
C1184      H1197   1.082   1_565  S
N1185      C1186   1.349       .  A
N1185      C1518   1.433       .  S
C1186      H1187   1.082       .  S
C1188      H1198   1.081       .  S
N1189      C1190   1.355   1_545  A
N1189      C1481   1.435       .  S
C1190      H1196   1.082       .  S
C1191      N1192   1.351       .  A
C1191      H1193   1.082       .  S
N1192      C1194   1.354       .  A
N1192      C1531   1.432       .  S
C1194      H1195   1.082       .  S
O1199      C1215   1.273       .  A
O1199     Zn1205   2.017       .  S
C1200      O1216   1.279       .  A
C1200      O1213   1.270       .  A
C1200      C1448   1.496       .  S
O1201     Cd1208   2.070       .  S
O1202      C1220   1.273       .  A
O1203      C1217   1.276       .  A
O1203     Cd1207   2.084       .  S
O1204      C1215   1.274       .  A
O1204     Cd1207   2.065       .  S
Zn1205     O1218   2.078       .  S
Zn1205     O1210   1.948       .  S
O1206     Cd1211   2.076       .  S
Cd1207     O1210   1.995       .  S
Cd1208     O1212   2.063       .  S
O1209      C1219   1.272       .  A
Cd1211     O1213   2.042       .  S
O1212      C1219   1.274       .  A
C1214      O1218   1.284   1_554  A
C1215      C1438   1.491       .  S
C1217      C1478   1.490       .  S
C1219      C1458   1.472       .  S
C1220      O1221   1.274       .  A
C1220      C1471   1.467       .  S
C1222      C1224   1.539       .  S
C1222      C1226   1.531       .  S
C1222      C1225   1.557       .  S
C1222      C1451   1.548       .  S
C1223      C1227   1.553       .  S
C1223      C1229   1.544       .  S
C1223      C1228   1.525       .  S
C1223      C1461   1.537       .  S
C1224      C1232   1.376       .  A
C1224      C1227   1.404       .  A
C1225      C1236   1.392       .  A
C1225      C1228   1.393       .  A
C1226      C1240   1.375       .  A
C1226      C1229   1.391       .  A
C1227      C1230   1.382       .  A
C1228      C1234   1.371       .  A
C1229      C1237   1.383       .  A
C1230      N1231   1.355       .  A
C1230      H1243   1.071       .  S
N1231      C1232   1.352       .  A
N1231      C1468   1.439       .  S
C1232      H1233   1.091       .  S
C1234      N1235   1.348       .  A
C1234      H1244   1.082       .  S
N1235      C1236   1.361       .  A
N1235      C1488   1.435       .  S
C1236      H1242   1.082       .  S
C1237      N1238   1.355       .  A
C1237      H1239   1.082       .  S
N1238      C1240   1.355       .  A
N1238      C1441   1.435       .  S
C1240      H1241   1.081       .  S
O1245      C1261   1.283       .  A
C1246      O1262   1.277       .  A
C1246      O1259   1.277       .  A
C1246      C1428   1.493       .  S
O1247      C1260   1.274   1_655  A
O1247     Cd1254   2.068   1_655  S
O1248      C1266   1.274       .  A
O1248     Cd1257   2.067       .  S
O1249     Cd1253   2.101       .  S
O1250      C1261   1.277       .  A
Zn1251     O1262   2.053   1_455  S
Zn1251     O1264   2.084       .  S
O1252      C1263   1.275   1_655  A
O1252     Cd1257   2.080       .  S
Cd1253     O1255   2.081       .  S
Cd1254     O1267   2.078   1_455  S
Cd1254     O1256   2.008       .  S
O1255      C1265   1.277       .  A
O1256     Cd1257   2.003   1_455  S
O1258      C1265   1.276       .  A
C1261      C1408   1.491       .  S
C1263      C1388   1.490       .  S
C1265      C1401   1.486       .  S
C1266      O1267   1.276       .  A
C1266      C1418   1.487       .  S
C1268      C1270   1.557       .  S
C1268      C1272   1.553       .  S
C1268      C1271   1.534       .  S
C1268      C1411   1.561       .  S
C1269      C1273   1.554       .  S
C1269      C1275   1.556       .  S
C1269      C1274   1.534       .  S
C1269      C1421   1.556       .  S
C1270      C1278   1.385       .  A
C1270      C1273   1.404       .  A
C1271      C1282   1.376       .  A
C1271      C1274   1.393       .  A
C1272      C1286   1.387       .  A
C1272      C1275   1.402       .  A
C1273      C1276   1.387       .  A
C1274      C1280   1.379       .  A
C1275      C1283   1.386       .  A
C1276      N1277   1.358       .  A
C1276      H1289   1.079       .  S
N1277      C1278   1.356       .  A
N1277      C1431   1.446       .  S
C1278      H1279   1.080       .  S
C1280      N1281   1.359       .  A
C1280      H1290   1.082       .  S
N1281      C1282   1.357       .  A
N1281      C1378   1.438       .  S
C1282      H1288   1.082       .  S
C1283      N1284   1.354       .  A
C1283      H1285   1.079       .  S
N1284      C1286   1.357       .  A
N1284      C1398   1.443       .  S
C1286      H1287   1.081       .  S
C1291      C1293   1.556       .  S
C1291      C1294   1.548       .  S
C1291      C1358   1.550       .  S
C1292      C1297   1.545   1_565  S
C1292      C1348   1.545       .  S
C1294      C1305   1.384       .  A
C1295      C1309   1.385       .  A
C1295      C1298   1.392       .  A
C1296      C1299   1.377       .  A
C1297      C1303   1.381   1_545  A
C1298      C1306   1.374       .  A
C1299      N1300   1.354       .  A
C1299      H1312   1.082       .  S
N1300      C1301   1.357   1_565  A
N1300      C1371   1.438       .  S
C1303      H1313   1.082       .  S
N1304      C1305   1.363       .  A
N1304      C1391   1.448   1_655  S
C1305      H1311   1.082       .  S
C1306      N1307   1.351       .  A
C1306      H1308   1.082       .  S
N1307      C1309   1.355       .  A
N1307      C1338   1.433       .  S
C1309      H1310   1.080       .  S
O1314      C1330   1.273       .  A
O1314     Zn1320   2.009       .  S
C1315      O1331   1.277       .  A
C1315      O1328   1.272       .  A
C1315      C1361   1.485       .  S
O1316      C1329   1.280       .  A
O1316     Cd1323   2.098       .  S
O1317      C1335   1.275       .  A
O1317     Cd1326   2.064       .  S
O1318      C1332   1.276       .  A
O1318     Cd1322   2.086       .  S
O1319      C1330   1.275       .  A
O1319     Cd1322   2.065       .  S
Zn1320     O1331   2.047       .  S
Zn1320     O1333   2.029       .  S
Zn1320     O1325   1.957       .  S
O1321      C1332   1.273       .  A
O1321     Cd1326   2.069       .  S
Cd1322     O1324   2.071       .  S
Cd1322     O1325   1.997       .  S
Cd1323     O1327   2.079       .  S
Cd1323     O1336   2.090       .  S
Cd1323     O1325   2.000       .  S
O1324      C1334   1.274       .  A
O1325     Cd1326   1.982       .  S
Cd1326     O1328   2.046       .  S
O1327      C1334   1.277       .  A
C1329      O1333   1.276       .  A
C1330      C1341   1.477       .  S
C1332      C1381   1.483       .  S
C1334      C1351   1.478       .  S
C1335      O1336   1.277       .  A
C1335      C1368   1.495       .  S
C1337      C1338   1.407       .  A
C1337      C1342   1.402       .  A
C1337     Br1344   1.927       .  S
C1338      C1339   1.402       .  A
C1339      C1340   1.409       .  A
C1339     Br1346   1.923       .  S
C1340      C1341   1.415       .  A
C1340     Br1345   1.929       .  S
C1341      C1342   1.411       .  A
C1342     Br1343   1.931       .  S
C1347      C1348   1.426       .  A
C1347      C1352   1.407       .  A
C1347     Br1354   1.938       .  S
C1348      C1349   1.420       .  A
C1349      C1350   1.410       .  A
C1349     Br1356   1.933       .  S
C1350      C1351   1.409       .  A
C1350     Br1355   1.932       .  S
C1351      C1352   1.405       .  A
C1352     Br1353   1.933       .  S
C1357      C1358   1.414       .  A
C1357      C1362   1.415       .  A
C1357     Br1364   1.932       .  S
C1358      C1359   1.409       .  A
C1359      C1360   1.402       .  A
C1359     Br1366   1.927       .  S
C1360      C1361   1.412       .  A
C1360     Br1365   1.932       .  S
C1361      C1362   1.416       .  A
C1362     Br1363   1.930       .  S
C1367      C1368   1.421       .  A
C1367      C1372   1.413       .  A
C1367     Br1374   1.931       .  S
C1368      C1369   1.420       .  A
C1369      C1370   1.405       .  A
C1369     Br1376   1.935       .  S
C1370      C1371   1.405       .  A
C1370     Br1375   1.930       .  S
C1371      C1372   1.403       .  A
C1372     Br1373   1.926       .  S
C1377      C1378   1.407       .  A
C1377      C1382   1.408       .  A
C1377     Br1384   1.926       .  S
C1378      C1379   1.408       .  A
C1379      C1380   1.408       .  A
C1379     Br1386   1.927       .  S
C1380      C1381   1.413       .  A
C1380     Br1385   1.927       .  S
C1381      C1382   1.412       .  A
C1382     Br1383   1.928       .  S
C1387      C1388   1.410       .  A
C1387      C1392   1.411   1_455  A
C1387     Br1394   1.930   1_455  S
C1389      C1390   1.413       .  A
C1389     Br1396   1.927       .  S
C1390     Br1395   1.928       .  S
C1391      C1392   1.413   1_455  A
C1392     Br1393   1.925       .  S
C1397      C1398   1.410       .  A
C1397      C1402   1.406       .  A
C1397     Br1404   1.923       .  S
C1398      C1399   1.406       .  A
C1399      C1400   1.415       .  A
C1399     Br1406   1.922       .  S
C1400      C1401   1.414       .  A
C1400     Br1405   1.924       .  S
C1401      C1402   1.409       .  A
C1402     Br1403   1.929       .  S
C1407      C1408   1.411       .  A
C1407      C1412   1.415       .  A
C1407     Br1414   1.932       .  S
C1408      C1409   1.411       .  A
C1409      C1410   1.411       .  A
C1409     Br1416   1.929       .  S
C1410      C1411   1.417       .  A
C1410     Br1415   1.928       .  S
C1411      C1412   1.418       .  A
C1412     Br1413   1.925       .  S
C1417      C1418   1.414       .  A
C1417      C1422   1.411       .  A
C1417     Br1424   1.936       .  S
C1418      C1419   1.414       .  A
C1419      C1420   1.408       .  A
C1419     Br1426   1.929       .  S
C1420      C1421   1.412       .  A
C1420     Br1425   1.930       .  S
C1421      C1422   1.415       .  A
C1422     Br1423   1.920       .  S
C1427      C1428   1.418       .  A
C1427      C1432   1.417       .  A
C1427     Br1434   1.928       .  S
C1428      C1429   1.411       .  A
C1429      C1430   1.405       .  A
C1429     Br1436   1.933       .  S
C1430      C1431   1.411       .  A
C1430     Br1435   1.924       .  S
C1431      C1432   1.407       .  A
C1432     Br1433   1.923       .  S
C1437      C1438   1.422       .  A
C1437      C1442   1.411       .  A
C1437     Br1444   1.929       .  S
C1438      C1439   1.417       .  A
C1439      C1440   1.402       .  A
C1439     Br1446   1.930       .  S
C1440      C1441   1.403       .  A
C1440     Br1445   1.922       .  S
C1441      C1442   1.400       .  A
C1442     Br1443   1.924       .  S
C1447      C1448   1.413       .  A
C1447      C1452   1.416       .  A
C1447     Br1454   1.937       .  S
C1448      C1449   1.418       .  A
C1449      C1450   1.403       .  A
C1449     Br1456   1.938       .  S
C1450      C1451   1.413       .  A
C1450     Br1455   1.932       .  S
C1451      C1452   1.431       .  A
C1452     Br1453   1.940       .  S
C1457      C1458   1.411       .  A
C1457      C1462   1.405       .  A
C1457     Br1464   1.932       .  S
C1458      C1459   1.412       .  A
C1459      C1460   1.402       .  A
C1459     Br1466   1.931       .  S
C1460      C1461   1.415       .  A
C1460     Br1465   1.938       .  S
C1461      C1462   1.413       .  A
C1462     Br1463   1.933       .  S
C1467      C1468   1.416       .  A
C1467      C1472   1.404       .  A
C1467     Br1474   1.929       .  S
C1468      C1469   1.409       .  A
C1469      C1470   1.407       .  A
C1469     Br1476   1.926       .  S
C1470      C1471   1.407       .  A
C1470     Br1475   1.929       .  S
C1471      C1472   1.404       .  A
C1472     Br1473   1.932       .  S
C1477      C1482   1.407   1_655  A
C1477     Br1484   1.923   1_655  S
C1479      C1480   1.410       .  A
C1479     Br1486   1.930       .  S
C1480      C1481   1.404   1_565  A
C1480     Br1485   1.925       .  S
C1482     Br1483   1.926       .  S
C1487      C1488   1.403       .  A
C1487      C1492   1.408       .  A
C1487     Br1494   1.922       .  S
C1488      C1489   1.405       .  A
C1489      C1490   1.406       .  A
C1489     Br1496   1.920       .  S
C1490      C1491   1.414       .  A
C1490     Br1495   1.931       .  S
C1491      C1492   1.414       .  A
C1492     Br1493   1.929       .  S
C1497      C1498   1.428       .  A
C1497      C1502   1.410       .  A
C1497     Br1504   1.941       .  S
C1498      C1499   1.412       .  A
C1499      C1500   1.396       .  A
C1499     Br1506   1.931       .  S
C1500      C1501   1.412       .  A
C1500     Br1505   1.935       .  S
C1501      C1502   1.411       .  A
C1502     Br1503   1.936       .  S
C1507      C1508   1.414       .  A
C1507      C1512   1.399       .  A
C1507     Br1514   1.937       .  S
C1508      C1509   1.415       .  A
C1509      C1510   1.408       .  A
C1509     Br1516   1.941       .  S
C1510      C1511   1.427       .  A
C1510     Br1515   1.944       .  S
C1511      C1512   1.415       .  A
C1512     Br1513   1.935       .  S
C1517      C1518   1.414       .  A
C1517      C1522   1.403       .  A
C1517     Br1524   1.929       .  S
C1518      C1519   1.410       .  A
C1519      C1520   1.401       .  A
C1519     Br1526   1.928       .  S
C1520      C1521   1.404       .  A
C1520     Br1525   1.932       .  S
C1521      C1522   1.404       .  A
C1522     Br1523   1.932       .  S
C1527      C1528   1.403       .  A
C1527      C1532   1.401       .  A
C1527     Br1534   1.931       .  S
C1528      C1529   1.408       .  A
C1529      C1530   1.405       .  A
C1529     Br1536   1.929       .  S
C1530      C1531   1.411       .  A
C1530     Br1535   1.930       .  S
C1531      C1532   1.411       .  A
C1532     Br1533   1.928       .  S
