geometry optimzed in LAMMPS
_audit_creation_date              2020-11-30 
_audit_creation_method            'lammps2cif' 
_symmetry_space_group_name_H-M    'P1' 
_symmetry_Int_Tables_number       1 
_symmetry_cell_setting            triclinic 
loop_ 
_symmetry_equiv_pos_as_xyz 
  x,y,z 
_cell_length_a                    42.08762676 
_cell_length_b                    42.26899363729963 
_cell_length_c                    26.453614915934402 
_cell_angle_alpha                 90.51081508391034 
_cell_angle_beta                  89.60307970041882 
_cell_angle_gamma                 120.24889578150862 
loop_ 
_atom_site_label 
_atom_site_type_symbol 
_atom_site_fract_x 
_atom_site_fract_y 
_atom_site_fract_z 
_atom_site_charge 
C1          C  0.39967509  0.30694526  0.00327942    -0.03900
C2          C  0.06463485  0.38627383  0.00392470    -0.03900
C3          C  0.14609099  0.05012552  0.00204827    -0.03900
C4          C  0.06673532  0.13468152  0.00185083    -0.03900
C5          C  0.40224712  0.05449219  0.99782757    -0.03900
C6          C  0.32119058  0.39085237  0.99955516    -0.03900
Fe7        Fe  0.09858133  0.27617312  0.25200827     1.65800
Fe8        Fe  0.18080022  0.27878154  0.25079265     1.73200
Fe9        Fe  0.17802329  0.35786703  0.25001219     1.54400
O10         O  0.14048784  0.35968476  0.20169429    -0.83100
O11         O  0.21290227  0.30909895  0.31072107    -0.81400
O12         O  0.09538768  0.30226792  0.18872727    -0.85600
O13         O  0.09346460  0.31251861  0.29985029    -0.80400
O14         O  0.20815369  0.35985087  0.18710908    -0.82200
O15         O  0.14567635  0.23924480  0.30181316    -0.85000
C16         C  0.11602778  0.34117269  0.32395380     0.95800
C17         C  0.11236524  0.33599976  0.17769299     1.03200
O18         O  0.15256113  0.30428245  0.25116541    -1.13900
O19         O  0.15202107  0.24724000  0.18994924    -0.76400
O20         O  0.09493334  0.23544204  0.20446294    -0.79900
O21         O  0.14990540  0.35960485  0.31270405    -0.80500
C22         C  0.11804954  0.23066235  0.17959713     0.94700
O23         O  0.09819053  0.24800942  0.31494030    -0.78500
O24         O  0.21941748  0.31423122  0.19971053    -0.83700
C25         C  0.22724940  0.34289769  0.32136706     0.97300
C26         C  0.22405173  0.34202369  0.17557330     1.03300
O27         O  0.21894586  0.36404272  0.29866232    -0.79300
C28         C  0.11693542  0.23313173  0.32601546     1.01600
Fe29       Fe  0.36944164  0.16550465  0.24959441     1.65800
Fe30       Fe  0.29030341  0.08410963  0.24956111     1.73200
Fe31       Fe  0.28787747  0.16273665  0.25208692     1.54400
O32         O  0.32577676  0.20510866  0.29952238    -0.83100
O33         O  0.26217375  0.08221036  0.18604845    -0.81400
O34         O  0.37110870  0.19366798  0.31392771    -0.85600
O35         O  0.37155475  0.20660399  0.20318316    -0.80400
O36         O  0.26030167  0.13555158  0.31565819    -0.82200
O37         O  0.32915023  0.08168274  0.20172288    -0.85000
C38         C  0.34739729  0.20955246  0.17815031     0.95800
C39         C  0.35415205  0.21064139  0.32417516     1.03200
O40         O  0.31590361  0.13748319  0.25065434    -1.13900
O41         O  0.31733414  0.08305067  0.31257389    -0.76400
O42         O  0.37439176  0.12793402  0.29601857    -0.79900
O43         O  0.31341459  0.19126687  0.18819758    -0.80500
C44         C  0.35154633  0.09994176  0.32141173     0.94700
O45         O  0.37123808  0.13953903  0.18473523    -0.78500
O46         O  0.24767783  0.07887161  0.29738815    -0.83700
C47         C  0.24367731  0.09766108  0.17776539     0.97300
C48         C  0.24268467  0.10143997  0.32387768     1.03300
O49         O  0.24628215  0.12394671  0.20490019    -0.79300
C50         C  0.35574378  0.10557978  0.17526514     1.01600
C51         C  0.23302957  0.34379252  0.08307014    -0.14700
C52         C  0.24825393  0.35332344  0.13143194     0.07400
C53         C  0.28642115  0.37224715  0.13728177    -0.14700
C54         C  0.30925738  0.38328698  0.09477746    -0.14700
C55         C  0.29441341  0.37599216  0.04536180     0.07400
C56         C  0.25575397  0.35433765  0.04050127    -0.14700
H57         H  0.20346298  0.32781876  0.07830877     0.11400
H58         H  0.29850271  0.37892859  0.17466561     0.11400
H59         H  0.33876314  0.39862833  0.10024729     0.11400
H60         H  0.24253659  0.34502224  0.00425210     0.11400
C61         C  0.30353154  0.35936003  0.41057765    -0.14700
C62         C  0.30025970  0.38142911  0.44851693     0.07400
C63         C  0.27659989  0.39530114  0.43864907    -0.14700
C64         C  0.25380909  0.38378716  0.39629634    -0.14700
C65         C  0.25418550  0.35825353  0.36255320     0.07400
C66         C  0.27987416  0.34693218  0.36916496    -0.14700
H67         H  0.32362530  0.35071780  0.41264243     0.11400
H68         H  0.27422341  0.41352007  0.46542915     0.11400
H69         H  0.23461103  0.39346814  0.39126638     0.11400
H70         H  0.28165462  0.32843915  0.34220152     0.11400
C71         C  0.35191477  0.05185074  0.44131481    -0.14700
C72         C  0.38952857  0.06359949  0.44765531     0.07400
C73         C  0.41366242  0.08351666  0.40746995    -0.14700
C74         C  0.40155276  0.09545949  0.36655621    -0.14700
C75         C  0.36465625  0.08627479  0.36317351     0.07400
C76         C  0.33977068  0.06330266  0.40015213    -0.14700
H77         H  0.33208218  0.03534476  0.46997304     0.11400
H78         H  0.44213346  0.09053785  0.40728269     0.11400
H79         H  0.42107432  0.11181832  0.33748445     0.11400
H80         H  0.31089977  0.05500190  0.39819888     0.11400
C81         C  0.37916315  0.09546547  0.04045172    -0.14700
C82         C  0.39192770  0.07035193  0.04461879     0.07400
C83         C  0.39663486  0.06073998  0.09401386    -0.14700
C84         C  0.38394562  0.07118881  0.13651276    -0.14700
C85         C  0.36886030  0.09387233  0.13111096     0.07400
C86         C  0.36782491  0.10696521  0.08310019    -0.14700
H87         H  0.37811952  0.10681422  0.00450965     0.11400
H88         H  0.40830380  0.04327984  0.09931579     0.11400
H89         H  0.38624769  0.06189744  0.17360141     0.11400
H90         H  0.35760936  0.12573442  0.07848980     0.11400
C91         C  0.33411444  0.45376347  0.03363235    -0.14700
C92         C  0.34422156  0.43341817  0.00148360     0.07400
C93         C  0.37180334  0.45330789  0.46512308    -0.14700
C94         C  0.39026401  0.49180205  0.46396893    -0.14700
C95         C  0.38220434  0.01194417  0.99952789     0.07400
C96         C  0.35224628  0.49170097  0.03231398    -0.14700
H97         H  0.31056657  0.44081030  0.05848267     0.11400
H98         H  0.37868356  0.43890312  0.43705619     0.11400
H99         H  0.41111507  0.00600753  0.43532432     0.11400
H100        H  0.34103526  0.50465267  0.05600605     0.11400
C101        C  0.05639971  0.15296583  0.09211033    -0.14700
C102        C  0.07914264  0.16017867  0.04908863     0.07400
C103        C  0.11552169  0.19027783  0.05148797    -0.14700
C104        C  0.12825221  0.21249151  0.09431305    -0.14700
C105        C  0.10499685  0.20568449  0.13589824     0.07400
C106        C  0.06898403  0.17587725  0.13447493    -0.14700
H107        H  0.02896387  0.12941106  0.09381732     0.11400
H108        H  0.13446176  0.19606799  0.02033201     0.11400
H109        H  0.15619278  0.23542021  0.09455346     0.11400
H110        H  0.05072515  0.16992995  0.16654242     0.11400
C111        C  0.07825317  0.19238680  0.45298302    -0.14700
C112        C  0.08050858  0.15995902  0.45390392     0.07400
C113        C  0.09812224  0.15423938  0.41171781    -0.14700
C114        C  0.10997050  0.17786687  0.37022429    -0.14700
C115        C  0.10495684  0.20814667  0.36939443     0.07400
C116        C  0.08925498  0.21531256  0.41127070    -0.14700
H117        H  0.06977272  0.20171651  0.48571428     0.11400
H118        H  0.10394043  0.13234717  0.40953715     0.11400
H119        H  0.12291449  0.17230132  0.33854161     0.11400
H120        H  0.08666115  0.23955323  0.41257198     0.11400
C121        C  0.46527934  0.11139239  0.99774986    -0.14700
C122        C  0.44470194  0.07304376  0.00030581     0.07400
C123        C  0.46430154  0.05451338  0.00814676    -0.14700
C124        C  0.50297476  0.07355401  0.00842336    -0.14700
C125        C  0.02370152  0.11191405  0.00080916     0.07400
C126        C  0.50338952  0.13013251  0.99762212    -0.14700
H127        H  0.45155857  0.12717061  0.99482051     0.11400
H128        H  0.45024123  0.02548580  0.01552148     0.11400
H129        H  0.01605453  0.05784603  0.51659044     0.11400
H130        H  0.01618158  0.15929800  0.99721883     0.11400
C131        C  0.15796691  0.05291254  0.09771912    -0.14700
C132        C  0.17270406  0.06110048  0.04809029     0.07400
C133        C  0.21136655  0.07781931  0.04306104    -0.14700
C134        C  0.23411673  0.08972168  0.08544513    -0.14700
C135        C  0.21907884  0.08491653  0.13397535     0.07400
C136        C  0.18087696  0.06574439  0.14010178    -0.14700
H137        H  0.12845696  0.03830877  0.10346312     0.11400
H138        H  0.22461247  0.08159629  0.00676967     0.11400
H139        H  0.26366199  0.10300323  0.08033077     0.11400
H140        H  0.16882572  0.06045952  0.17758683     0.11400
C141        C  0.19204678  0.10060794  0.44342605    -0.14700
C142        C  0.16776769  0.06288583  0.45127706     0.07400
C143        C  0.16499638  0.03857495  0.41199438    -0.14700
C144        C  0.18918351  0.05090852  0.37071814    -0.14700
C145        C  0.21563105  0.08808678  0.36601978     0.07400
C146        C  0.21591047  0.11293449  0.40197233    -0.14700
H147        H  0.19410360  0.12047969  0.47129263     0.11400
H148        H  0.14468552  0.00978255  0.41278397     0.11400
H149        H  0.18717398  0.03127476  0.34248156     0.11400
H150        H  0.23537479  0.14198517  0.39897114     0.11400
C151        C  0.12914035  0.09595680  0.54209900    -0.14700
C152        C  0.12262852  0.06914476  0.00518265     0.07400
C153        C  0.09602127  0.06263422  0.96806455    -0.14700
C154        C  0.07681043  0.08189679  0.96845867    -0.14700
C155        C  0.08431509  0.10957120  0.00483861     0.07400
C156        C  0.10945383  0.11412562  0.54332821    -0.14700
H157        H  0.15051895  0.10476266  0.57000479     0.11400
H158        H  0.09048917  0.04287591  0.93815704     0.11400
H159        H  0.05690279  0.07615500  0.93890040     0.11400
H160        H  0.11570856  0.13266835  0.57477998     0.11400
C161        C  0.12606904  0.37058132  0.40832742    -0.14700
C162        C  0.10259183  0.35292206  0.36773931     0.07400
C163        C  0.06585906  0.34416384  0.37139205    -0.14700
C164        C  0.05323927  0.35430835  0.41418117    -0.14700
C165        C  0.07711354  0.37409292  0.45486332     0.07400
C166        C  0.11328109  0.37972885  0.45144966    -0.14700
H167        H  0.15399995  0.37561559  0.40791888     0.11400
H168        H  0.04672085  0.32919390  0.34119509     0.11400
H169        H  0.02436938  0.34510253  0.41452812     0.11400
H170        H  0.13147163  0.38862413  0.48344598     0.11400
C171        C  0.07402863  0.33836858  0.05038607    -0.14700
C172        C  0.07779864  0.37359734  0.05025262     0.07400
C173        C  0.09106314  0.39506638  0.09476361    -0.14700
C174        C  0.10247954  0.38291393  0.13593160    -0.14700
C175        C  0.09938123  0.34833503  0.13485674     0.07400
C176        C  0.08453826  0.32592296  0.09214142    -0.14700
H177        H  0.06236117  0.32015558  0.01819694     0.11400
H178        H  0.09255027  0.42128041  0.09833780     0.11400
H179        H  0.11318994  0.40033802  0.16907357     0.11400
H180        H  0.08166334  0.29897961  0.09067973     0.11400
C181        C  0.06534122  0.44897530  0.01081393    -0.14700
C182        C  0.08412310  0.42917418  0.00480484     0.07400
C183        C  0.12292570  0.45032426  0.50437139    -0.14700
C184        C  0.14157374  0.48823074  0.50381223    -0.14700
C185        C  0.12280439  0.00781902  0.00440946     0.07400
C186        C  0.08425075  0.48747662  0.01044240    -0.14700
H187        H  0.03612071  0.43538244  0.01760853     0.11400
H188        H  0.13996454  0.43840509  0.50718367     0.11400
H189        H  0.17136139  0.50259309  0.50244385     0.11400
H190        H  0.06834686  0.50081898  0.01597670     0.11400
C191        C  0.40305472  0.26001618  0.44481055    -0.14700
C192        C  0.39058792  0.28509089  0.45249234     0.07400
C193        C  0.36991583  0.28849737  0.41301364    -0.14700
C194        C  0.35808983  0.26446797  0.37148834    -0.14700
C195        C  0.36805022  0.23752508  0.36664572     0.07400
C196        C  0.39172792  0.23644877  0.40293246    -0.14700
H197        H  0.42011116  0.25732170  0.47293011     0.11400
H198        H  0.36212933  0.30923095  0.41383305     0.11400
H199        H  0.34112010  0.26702400  0.34308258     0.11400
H200        H  0.40063703  0.21652643  0.39989309     0.11400
C201        C  0.38014152  0.27226300  0.14111923    -0.14700
C202        C  0.35881861  0.23429711  0.13469831     0.07400
C203        C  0.34694278  0.21974053  0.08625400    -0.14700
C204        C  0.35881643  0.24251635  0.04407289    -0.14700
C205        C  0.38308733  0.28069335  0.04929334     0.07400
C206        C  0.39090713  0.29527719  0.09903523    -0.14700
H207        H  0.38830803  0.28405518  0.17860051     0.11400
H208        H  0.32899524  0.19050825  0.08096195     0.11400
H209        H  0.34847675  0.22976504  0.00771709     0.11400
H210        H  0.40750866  0.32458215  0.10498910     0.11400
C211        C  0.50052610  0.34141847  0.04324363    -0.14700
C212        C  0.02163897  0.36784554  0.00636517     0.07400
C213        C  0.00177924  0.37545879  0.47015479    -0.14700
C214        C  0.46314071  0.35627345  0.46946766    -0.14700
C215        C  0.44245608  0.32948639  0.00605798     0.07400
C216        C  0.46238577  0.32188429  0.04178573    -0.14700
H217        H  0.01269184  0.33408207  0.07330655     0.11400
H218        H  0.01638965  0.39549639  0.44093910     0.11400
H219        H  0.44923373  0.36218759  0.43993238     0.11400
H220        H  0.44919506  0.29976404  0.06839743     0.11400
C221        C  0.40089189  0.36955458  0.01188719    -0.14700
C222        C  0.38153137  0.33101188  0.00599657     0.07400
C223        C  0.34286346  0.31316687  0.50486959    -0.14700
C224        C  0.32460465  0.33277301  0.00404630    -0.14700
C225        C  0.34394061  0.37140462  0.00393686     0.07400
C226        C  0.38239559  0.38946029  0.01060046    -0.14700
H227        H  0.43023637  0.38474934  0.01785729     0.11400
H228        H  0.32658456  0.28357670  0.50265290     0.07200
H229        H  0.29488221  0.31755296  0.00132998     0.11400
H230        H  0.39846873  0.41881562  0.01535449     0.11400
C231        C  0.39967471  0.30694605  0.50328012    -0.03900
C232        C  0.06463502  0.38627473  0.50392337    -0.03900
C233        C  0.14609199  0.05012518  0.50204542    -0.03900
C234        C  0.06673701  0.13468205  0.50185396    -0.03900
C235        C  0.40224796  0.05449314  0.49782904    -0.03900
C236        C  0.32118838  0.39085192  0.49955267    -0.03900
Fe237      Fe  0.09858418  0.27617594  0.75200905     1.65800
Fe238      Fe  0.18080305  0.27878482  0.75079373     1.73200
Fe239      Fe  0.17802543  0.35786989  0.75001395     1.54400
O240        O  0.14048942  0.35968741  0.70169592    -0.83100
O241        O  0.21290452  0.30910176  0.81072314    -0.81400
O242        O  0.09539070  0.30227021  0.68872695    -0.85600
O243        O  0.09346673  0.31252157  0.79984980    -0.80400
O244        O  0.20815548  0.35985393  0.68711057    -0.82200
O245        O  0.14567850  0.23924703  0.80181298    -0.85000
C246        C  0.11602970  0.34117494  0.82395473     0.95800
C247        C  0.11236748  0.33600224  0.67769335     1.03200
O248        O  0.15256379  0.30428546  0.75116665    -1.13900
O249        O  0.15202470  0.24724427  0.68994908    -0.76400
O250        O  0.09493661  0.23544430  0.70446510    -0.79900
O251        O  0.14990754  0.35960695  0.81270621    -0.80500
C252        C  0.11805298  0.23066564  0.67959801     0.94700
O253        O  0.09819390  0.24801334  0.81494212    -0.78500
O254        O  0.21942057  0.31423519  0.69971261    -0.83700
C255        C  0.22725209  0.34290065  0.82136877     0.97300
C256        C  0.22405378  0.34202703  0.67557471     1.03300
O257        O  0.21894852  0.36404568  0.79866389    -0.79300
C258        C  0.11693809  0.23313466  0.82601615     1.01600
Fe259      Fe  0.36943849  0.16550232  0.74959575     1.65800
Fe260      Fe  0.29029981  0.08410712  0.74956260     1.73200
Fe261      Fe  0.28787464  0.16273525  0.75208723     1.54400
O262        O  0.32577272  0.20510618  0.79952479    -0.83100
O263        O  0.26217004  0.08220762  0.68605030    -0.81400
O264        O  0.37110589  0.19366693  0.81392766    -0.85600
O265        O  0.37155269  0.20660129  0.70318220    -0.80400
O266        O  0.26029742  0.13554933  0.81565729    -0.82200
O267        O  0.32914623  0.08167940  0.70172433    -0.85000
C268        C  0.34739576  0.20955178  0.67815103     0.95800
C269        C  0.35414876  0.21063965  0.82417616     1.03200
O270        O  0.31590040  0.13748112  0.75065515    -1.13900
O271        O  0.31733010  0.08304758  0.81257514    -0.76400
O272        O  0.37438751  0.12793214  0.79602184    -0.79900
O273        O  0.31341313  0.19126751  0.68819940    -0.80500
C274        C  0.35154213  0.09993901  0.82141356     0.94700
O275        O  0.37123532  0.13953555  0.68473823    -0.78500
O276        O  0.24767483  0.07886940  0.79738995    -0.83700
C277        C  0.24367527  0.09765976  0.67776490     0.97300
C278        C  0.24268148  0.10143796  0.82387851     1.03300
O279        O  0.24628074  0.12394636  0.70489805    -0.79300
C280        C  0.35574071  0.10557633  0.67526775     1.01600
C281        C  0.23302969  0.34378980  0.58307157    -0.14700
C282        C  0.24825493  0.35332618  0.63143247     0.07400
C283        C  0.28642225  0.37225435  0.63728078    -0.14700
C284        C  0.30925760  0.38329263  0.59477565    -0.14700
C285        C  0.29441244  0.37599270  0.54536057     0.07400
C286        C  0.25575320  0.35433433  0.54050185    -0.14700
H287        H  0.20346306  0.32781247  0.57831161     0.11400
H288        H  0.29850458  0.37894001  0.67466416     0.11400
H289        H  0.33876331  0.39863702  0.60024413     0.11400
H290        H  0.24253555  0.34501539  0.50425336     0.11400
C291        C  0.30353391  0.35936127  0.91057936    -0.14700
C292        C  0.30026313  0.38143119  0.94851835     0.07400
C293        C  0.27660538  0.39530543  0.93864922    -0.14700
C294        C  0.25381448  0.38379191  0.89629646    -0.14700
C295        C  0.25418894  0.35825666  0.86255439     0.07400
C296        C  0.27987646  0.34693386  0.86916671    -0.14700
H297        H  0.32362671  0.35071776  0.91264445     0.11400
H298        H  0.27423017  0.41352544  0.96542875     0.11400
H299        H  0.23461772  0.39347433  0.89126594     0.11400
H300        H  0.28165581  0.32843988  0.84220392     0.11400
C301        C  0.35191179  0.05184385  0.94131177    -0.14700
C302        C  0.38952626  0.06359585  0.94765306     0.07400
C303        C  0.41365971  0.08351461  0.90746818    -0.14700
C304        C  0.40154923  0.09545788  0.86655615    -0.14700
C305        C  0.36465225  0.08627117  0.86317371     0.07400
C306        C  0.33976676  0.06329590  0.90015019    -0.14700
H307        H  0.33207948  0.03533594  0.96996918     0.11400
H308        H  0.44213105  0.09053729  0.90728023     0.11400
H309        H  0.42107074  0.11181881  0.83748547     0.11400
H310        H  0.31089540  0.05499312  0.89819644     0.11400
C311        C  0.37916969  0.09546991  0.54045621    -0.14700
C312        C  0.39192814  0.07035145  0.54462166     0.07400
C313        C  0.39662857  0.06073317  0.59401614    -0.14700
C314        C  0.38393725  0.07118022  0.63651474    -0.14700
C315        C  0.36885806  0.09386921  0.63111393     0.07400
C316        C  0.36783062  0.10696875  0.58310473    -0.14700
H317        H  0.37813157  0.10682309  0.50451517     0.11400
H318        H  0.40829324  0.04326918  0.59931736     0.11400
H319        H  0.38623346  0.06188366  0.67360242     0.11400
H320        H  0.35762031  0.12574227  0.57849536     0.11400
C321        C  0.33410866  0.45376316  0.53362332    -0.14700
C322        C  0.34421843  0.43341789  0.50147882     0.07400
C323        C  0.37180499  0.45330816  0.96512608    -0.14700
C324        C  0.39026470  0.49180215  0.96397088    -0.14700
C325        C  0.38220342  0.01194494  0.49952593     0.07400
C326        C  0.35224123  0.49170065  0.53230575    -0.14700
H327        H  0.31055853  0.44080987  0.55846976     0.11400
H328        H  0.37868409  0.43890338  0.93705777     0.11400
H329        H  0.41111267  0.00600650  0.93532237     0.11400
H330        H  0.34102848  0.50465245  0.55599429     0.11400
C331        C  0.05640380  0.15296621  0.59211460    -0.14700
C332        C  0.07914528  0.16017998  0.54909107     0.07400
C333        C  0.11552350  0.19028086  0.55148805    -0.14700
C334        C  0.12825424  0.21249550  0.59431233    -0.14700
C335        C  0.10500012  0.20568753  0.63589929     0.07400
C336        C  0.06898823  0.17587853  0.63447829    -0.14700
H337        H  0.02896891  0.12941003  0.59382345     0.11400
H338        H  0.13446275  0.19607189  0.52033068     0.11400
H339        H  0.15619422  0.23542572  0.59455096     0.11400
H340        H  0.05073021  0.16993045  0.66654717     0.11400
C341        C  0.07825668  0.19238950  0.95298383    -0.14700
C342        C  0.08050787  0.15995925  0.95390160     0.07400
C343        C  0.09811701  0.15423695  0.91171244    -0.14700
C344        C  0.10996690  0.17786560  0.87022012    -0.14700
C345        C  0.10495897  0.20814901  0.86939443     0.07400
C346        C  0.08926060  0.21531676  0.91127301    -0.14700
H347        H  0.06977639  0.20171877  0.98571573     0.11400
H348        H  0.10392990  0.13234126  0.90952794     0.11400
H349        H  0.12290725  0.17229795  0.83853493     0.11400
H350        H  0.08667023  0.23955945  0.91257667     0.11400
C351        C  0.46528040  0.11139252  0.49775642    -0.14700
C352        C  0.44470278  0.07304383  0.50030867     0.07400
C353        C  0.46430227  0.05451293  0.50814690    -0.14700
C354        C  0.50297571  0.07355362  0.50842406    -0.14700
C355        C  0.02370281  0.11191419  0.50081398     0.07400
C356        C  0.50339056  0.13013266  0.49763124    -0.14700
H357        H  0.45155994  0.12717109  0.49482916     0.11400
H358        H  0.45024183  0.02548507  0.51551870     0.11400
H359        H  0.01605372  0.05784703  0.01659264     0.11400
H360        H  0.01618229  0.15929805  0.49723387     0.11400
C361        C  0.15796662  0.05291026  0.59771601    -0.14700
C362        C  0.17270455  0.06109889  0.54808770     0.07400
C363        C  0.21136716  0.07781830  0.54305948    -0.14700
C364        C  0.23411666  0.08972111  0.58544428    -0.14700
C365        C  0.21907784  0.08491542  0.63397397     0.07400
C366        C  0.18087590  0.06574220  0.64009933    -0.14700
H367        H  0.12845655  0.03830606  0.60345918     0.11400
H368        H  0.22461362  0.08159574  0.50676842     0.11400
H369        H  0.26366209  0.10300334  0.58033088     0.11400
H370        H  0.16882411  0.06045681  0.67758388     0.11400
C371        C  0.19204469  0.10060741  0.94342716    -0.14700
C372        C  0.16776632  0.06288539  0.95127964     0.07400
C373        C  0.16499547  0.03857376  0.91199827    -0.14700
C374        C  0.18918238  0.05090688  0.87072190    -0.14700
C375        C  0.21562884  0.08808524  0.86602162     0.07400
C376        C  0.21590798  0.11293347  0.90197306    -0.14700
H377        H  0.19410113  0.12047956  0.97129280     0.11400
H378        H  0.14468523  0.00978136  0.91278890     0.11400
H379        H  0.18717327  0.03127255  0.84248628     0.11400
H380        H  0.23537171  0.14198424  0.89897051     0.11400
C381        C  0.12913712  0.09595568  0.04210048    -0.14700
C382        C  0.12263026  0.06914523  0.50518127     0.07400
C383        C  0.09602261  0.06263517  0.46806416    -0.14700
C384        C  0.07681198  0.08189792  0.46845984    -0.14700
C385        C  0.08431703  0.10957197  0.50484051     0.07400
C386        C  0.10945014  0.11412386  0.04332841    -0.14700
H387        H  0.15051488  0.10476153  0.07000767     0.11400
H388        H  0.09048999  0.04287705  0.43815625     0.11400
H389        H  0.05690447  0.07615695  0.43890157     0.11400
H390        H  0.11570315  0.13266533  0.07478148     0.11400
C391        C  0.12607044  0.37058361  0.90832811    -0.14700
C392        C  0.10259321  0.35292361  0.86774032     0.07400
C393        C  0.06585997  0.34416385  0.87139356    -0.14700
C394        C  0.05323984  0.35430779  0.91418275    -0.14700
C395        C  0.07711409  0.37409324  0.95486440     0.07400
C396        C  0.11328216  0.37973057  0.95145044    -0.14700
H397        H  0.15400176  0.37561890  0.90791935     0.11400
H398        H  0.04672173  0.32919314  0.84119698     0.11400
H399        H  0.02436953  0.34510074  0.91453035     0.11400
H400        H  0.13147270  0.38862600  0.98344651     0.11400
C401        C  0.07402750  0.33836922  0.55038716    -0.14700
C402        C  0.07779914  0.37359868  0.55025188     0.07400
C403        C  0.09106615  0.39506910  0.59476142    -0.14700
C404        C  0.10248304  0.38291704  0.63592963    -0.14700
C405        C  0.09938319  0.34833741  0.63485660     0.07400
C406        C  0.08453792  0.32592422  0.59214264    -0.14700
H407        H  0.06235847  0.32015539  0.51819930     0.11400
H408        H  0.09255479  0.42128380  0.59833437     0.11400
H409        H  0.11319511  0.40034219  0.66907046     0.11400
H410        H  0.08166166  0.29898025  0.59068204     0.11400
C411        C  0.06534265  0.44897695  0.51081012    -0.14700
C412        C  0.08412395  0.42917525  0.50480150     0.07400
C413        C  0.12292480  0.45032349  0.00437693    -0.14700
C414        C  0.14157238  0.48822988  0.00381841    -0.14700
C415        C  0.12280473  0.00781849  0.50440541     0.07400
C416        C  0.08425259  0.48747830  0.51043772    -0.14700
H417        H  0.03612212  0.43538442  0.51760525     0.11400
H418        H  0.13996380  0.43840473  0.00719058     0.11400
H419        H  0.17136001  0.50259247  0.00245074     0.11400
H420        H  0.06834906  0.50082100  0.51597232     0.11400
C421        C  0.40305384  0.26001516  0.94480948    -0.14700
C422        C  0.39058750  0.28509013  0.95249178     0.07400
C423        C  0.36991467  0.28849648  0.91301401    -0.14700
C424        C  0.35808728  0.26446644  0.87148954    -0.14700
C425        C  0.36804749  0.23752348  0.86664634     0.07400
C426        C  0.39172616  0.23644751  0.90293180    -0.14700
H427        H  0.42011090  0.25732080  0.97292835     0.11400
H428        H  0.36212857  0.30923039  0.91383370     0.11400
H429        H  0.34111676  0.26702217  0.84308456     0.11400
H430        H  0.40063528  0.21652523  0.89989175     0.11400
C431        C  0.38013808  0.27226300  0.64112025    -0.14700
C432        C  0.35881750  0.23429687  0.63469905     0.07400
C433        C  0.34694391  0.21974029  0.58625420    -0.14700
C434        C  0.35881744  0.24251638  0.54407323    -0.14700
C435        C  0.38308665  0.28069378  0.54929405     0.07400
C436        C  0.39090412  0.29527733  0.59903617    -0.14700
H437        H  0.38830263  0.28405524  0.67860193     0.11400
H438        H  0.32899795  0.19050783  0.58096163     0.11400
H439        H  0.34847898  0.22976488  0.50771737     0.11400
H440        H  0.40750417  0.32458253  0.60499041     0.11400
C441        C  0.50052645  0.34142248  0.54324613    -0.14700
C442        C  0.02163902  0.36784719  0.50636483     0.07400
C443        C  0.00177960  0.37545828  0.97015582    -0.14700
C444        C  0.46314115  0.35627310  0.96946814    -0.14700
C445        C  0.44245581  0.32948807  0.50605926     0.07400
C446        C  0.46238592  0.32188849  0.54178946    -0.14700
H447        H  0.01269251  0.33408797  0.57331044     0.11400
H448        H  0.01639035  0.39549688  0.94094139     0.11400
H449        H  0.44923438  0.36218856  0.93993394     0.11400
H450        H  0.44919553  0.29977014  0.56840403     0.11400
C451        C  0.40089066  0.36955527  0.51188529    -0.14700
C452        C  0.38153049  0.33101240  0.50599610     0.07400
C453        C  0.34286433  0.31316664  0.00487017    -0.14700
C454        C  0.32460340  0.33277295  0.50404531    -0.14700
C455        C  0.34393894  0.37140464  0.50393498     0.07400
C456        C  0.38239397  0.38946063  0.51059794    -0.14700
H457        H  0.43023521  0.38475042  0.51785465     0.11400
H458        H  0.32658515  0.28357653  0.00265296     0.07200
H459        H  0.29488095  0.31755254  0.50132937     0.11400
H460        H  0.39846696  0.41881616  0.51535119     0.11400
C461        C  0.39968184  0.80694517  0.00327627    -0.03900
C462        C  0.06464221  0.88627528  0.00392052    -0.03900
C463        C  0.14608216  0.55012429  0.00204716    -0.03900
C464        C  0.06672743  0.63468038  0.00184865    -0.03900
C465        C  0.40223896  0.55449316  0.99782555    -0.03900
C466        C  0.32119626  0.89085086  0.99955053    -0.03900
Fe467      Fe  0.09858700  0.77617577  0.25200515     1.65800
Fe468      Fe  0.18080360  0.77877965  0.25078925     1.73200
Fe469      Fe  0.17803078  0.85786748  0.25000792     1.54400
O470        O  0.14049554  0.85968702  0.20169122    -0.83100
O471        O  0.21290736  0.80909724  0.31071732    -0.81400
O472        O  0.09539503  0.80227052  0.18872352    -0.85600
O473        O  0.09347277  0.81252330  0.29984592    -0.80400
O474        O  0.20815929  0.85984887  0.18710382    -0.82200
O475        O  0.14567845  0.73924392  0.30181088    -0.85000
C476        C  0.11603676  0.84117681  0.32394976     0.95800
C477        C  0.11237302  0.83600233  0.17768949     1.03200
O478        O  0.15256672  0.80428280  0.25116205    -1.13900
O479        O  0.15202275  0.74723813  0.18994580    -0.76400
O480        O  0.09493620  0.73544307  0.20446114    -0.79900
O481        O  0.14991466  0.85960734  0.31270082    -0.80500
C482        C  0.11805103  0.73066189  0.17959441     0.94700
O483        O  0.09819470  0.74801197  0.31493738    -0.78500
O484        O  0.21942127  0.81422803  0.19970601    -0.83700
C485        C  0.22725604  0.84289643  0.32136219     0.97300
C486        C  0.22405616  0.84202054  0.17556806     1.03300
O487        O  0.21895354  0.86404192  0.29865665    -0.79300
C488        C  0.11693771  0.73313232  0.32601274     1.01600
Fe489      Fe  0.36943443  0.66550272  0.24959261     1.65800
Fe490      Fe  0.29029406  0.58411006  0.24955911     1.73200
Fe491      Fe  0.28787273  0.66273974  0.25208466     1.54400
O492        O  0.32577338  0.70510979  0.29952188    -0.83100
O493        O  0.26216446  0.58221187  0.18604710    -0.81400
O494        O  0.37110259  0.69366489  0.31392681    -0.85600
O495        O  0.37155111  0.70660438  0.20318384    -0.80400
O496        O  0.26029411  0.63555443  0.31565514    -0.82200
O497        O  0.32913994  0.58168183  0.20172017    -0.85000
C498        C  0.34739519  0.70955416  0.17814941     0.95800
C499        C  0.35414802  0.71064025  0.32417449     1.03200
O500        O  0.31589629  0.63748363  0.25065243    -1.13900
O501        O  0.31732416  0.58304953  0.31257174    -0.76400
O502        O  0.37438245  0.62793020  0.29601429    -0.79900
O503        O  0.31341220  0.69127015  0.18819573    -0.80500
C504        C  0.35153646  0.59993895  0.32140837     0.94700
O505        O  0.37122896  0.63953775  0.18473240    -0.78500
O506        O  0.24766957  0.57887402  0.29738634    -0.83700
C507        C  0.24367014  0.59766464  0.17776281     0.97300
C508        C  0.24267652  0.60144279  0.32387501     1.03300
O509        O  0.24627714  0.62395188  0.20489608    -0.79300
C510        C  0.35573358  0.60557855  0.17526209     1.01600
C511        C  0.23303431  0.84379033  0.08306447    -0.14700
C512        C  0.24825841  0.85331965  0.13142661     0.07400
C513        C  0.28642556  0.87224248  0.13727671    -0.14700
C514        C  0.30926205  0.88328331  0.09477265    -0.14700
C515        C  0.29441847  0.87599009  0.04535674     0.07400
C516        C  0.25575896  0.85433628  0.04049570    -0.14700
H517        H  0.20346767  0.82781733  0.07830271     0.11400
H518        H  0.29850698  0.87892279  0.17466077     0.11400
H519        H  0.33876772  0.89862407  0.10024296     0.11400
H520        H  0.24254168  0.84502214  0.00424632     0.11400
C521        C  0.30353911  0.85936019  0.41057275    -0.14700
C522        C  0.30026709  0.88142941  0.44851183     0.07400
C523        C  0.27660747  0.89530144  0.43864321    -0.14700
C524        C  0.25381637  0.88378678  0.39629069    -0.14700
C525        C  0.25419249  0.85825254  0.36254819     0.07400
C526        C  0.27988151  0.84693171  0.36916017    -0.14700
H527        H  0.32363300  0.85071814  0.41263792     0.11400
H528        H  0.27423101  0.91352062  0.46542295     0.11400
H529        H  0.23461832  0.89346762  0.39126046     0.11400
H530        H  0.28166202  0.82843844  0.34219692     0.11400
C531        C  0.35190561  0.55184987  0.44131273    -0.14700
C532        C  0.38951949  0.56359885  0.44765279     0.07400
C533        C  0.41365306  0.58351524  0.40746688    -0.14700
C534        C  0.40154281  0.59545675  0.36655237    -0.14700
C535        C  0.36464626  0.58627187  0.36316993     0.07400
C536        C  0.33976100  0.56330075  0.40014952    -0.14700
H537        H  0.33207326  0.53534449  0.46997166     0.11400
H538        H  0.44212406  0.59053681  0.40727981     0.11400
H539        H  0.42106415  0.61181507  0.33748009     0.11400
H540        H  0.31089023  0.55500017  0.39819666     0.11400
C541        C  0.37915450  0.59546611  0.04044909    -0.14700
C542        C  0.39191961  0.57035306  0.04461635     0.07400
C543        C  0.39662646  0.56074085  0.09401135    -0.14700
C544        C  0.38393587  0.57118836  0.13650993    -0.14700
C545        C  0.36884971  0.59387106  0.13110788     0.07400
C546        C  0.36781509  0.60696481  0.08309739    -0.14700
H547        H  0.37811110  0.60681501  0.00450697     0.11400
H548        H  0.40829589  0.54328105  0.09931335     0.11400
H549        H  0.38623772  0.56189681  0.17359854     0.11400
H550        H  0.35759938  0.62573383  0.07848717     0.11400
C551        C  0.33412120  0.95376186  0.03363073    -0.14700
C552        C  0.34422729  0.93341674  0.00147993     0.07400
C553        C  0.37181092  0.95330808  0.46512207    -0.14700
C554        C  0.39027272  0.99180232  0.46397016    -0.14700
C555        C  0.38219629  0.51194524  0.99952685     0.07400
C556        C  0.35225432  0.99169953  0.03231486    -0.14700
H557        H  0.31057341  0.94080852  0.05848115     0.11400
H558        H  0.37869113  0.93890359  0.43705448     0.11400
H559        H  0.41110577  0.50600689  0.43532219     0.11400
H560        H  0.34104409  0.00465118  0.05600863     0.11400
C561        C  0.05639502  0.65296782  0.09210775    -0.14700
C562        C  0.07913662  0.66017899  0.04908506     0.07400
C563        C  0.11551682  0.69027641  0.05148323    -0.14700
C564        C  0.12824983  0.71248973  0.09430858    -0.14700
C565        C  0.10499608  0.70568407  0.13589527     0.07400
C566        C  0.06898201  0.67587883  0.13447267    -0.14700
H567        H  0.02895842  0.62941441  0.09381553     0.11400
H568        H  0.13445585  0.69606517  0.02032656     0.11400
H569        H  0.15619126  0.73541709  0.09454809     0.11400
H570        H  0.05072408  0.66993268  0.16654109     0.11400
C571        C  0.07824468  0.69238408  0.45297526    -0.14700
C572        C  0.08050128  0.65995708  0.45389913     0.07400
C573        C  0.09811957  0.65423909  0.41171708    -0.14700
C574        C  0.10997106  0.67786733  0.37022423    -0.14700
C575        C  0.10495639  0.70814646  0.36939116     0.07400
C576        C  0.08924972  0.71531052  0.41126355    -0.14700
H577        H  0.06976260  0.70171378  0.48570460     0.11400
H578        H  0.10393978  0.63234821  0.40953963     0.11400
H579        H  0.12291867  0.67230303  0.33854494     0.11400
H580        H  0.08665499  0.73955076  0.41256286     0.11400
C581        C  0.46527164  0.61139326  0.99774720    -0.14700
C582        C  0.44469379  0.57304461  0.00030368     0.07400
C583        C  0.46429294  0.55451395  0.00814566    -0.14700
C584        C  0.50296605  0.57355402  0.00842232    -0.14700
C585        C  0.02369349  0.61191404  0.00080777     0.07400
C586        C  0.50338191  0.63013296  0.99762031    -0.14700
H587        H  0.45155114  0.62717169  0.99481732     0.11400
H588        H  0.45023239  0.52548647  0.01552136     0.11400
H589        H  0.01604534  0.55784508  0.51658436     0.11400
H590        H  0.01617448  0.65929865  0.99721708     0.11400
C591        C  0.15795943  0.55290997  0.09771756    -0.14700
C592        C  0.17269605  0.56110042  0.04808852     0.07400
C593        C  0.21135889  0.57782377  0.04305862    -0.14700
C594        C  0.23410941  0.58972822  0.08544244    -0.14700
C595        C  0.21907149  0.58492023  0.13397299     0.07400
C596        C  0.18086970  0.56574333  0.14010000    -0.14700
H597        H  0.12844964  0.53830297  0.10346205     0.11400
H598        H  0.22460502  0.58160304  0.00676709     0.11400
H599        H  0.26365475  0.60301304  0.08032766     0.11400
H600        H  0.16881867  0.56045590  0.17758519     0.11400
C601        C  0.19203646  0.60060968  0.44342233    -0.14700
C602        C  0.16775968  0.56288721  0.45127484     0.07400
C603        C  0.16498981  0.53857651  0.41199284    -0.14700
C604        C  0.18917666  0.55091080  0.37071644    -0.14700
C605        C  0.21562240  0.58808951  0.36601674     0.07400
C606        C  0.21589986  0.61293696  0.40196811    -0.14700
H607        H  0.19409185  0.62048123  0.47128812     0.11400
H608        H  0.14468039  0.50978368  0.41278311     0.11400
H609        H  0.18716846  0.53127694  0.34248065     0.11400
H610        H  0.23536259  0.64198794  0.39896580     0.11400
C611        C  0.12912841  0.59595340  0.54210057    -0.14700
C612        C  0.12261836  0.56914204  0.00518275     0.07400
C613        C  0.09601174  0.56263192  0.96806377    -0.14700
C614        C  0.07680094  0.58189449  0.96845768    -0.14700
C615        C  0.08430512  0.60956840  0.00483814     0.07400
C616        C  0.10944137  0.61412158  0.54332909    -0.14700
H617        H  0.15050521  0.60475816  0.57000883     0.11400
H618        H  0.09048070  0.54287456  0.93815545     0.11400
H619        H  0.05689438  0.57615381  0.93889793     0.11400
H620        H  0.11569398  0.63266289  0.57478244     0.11400
C621        C  0.12607679  0.87058307  0.40832516    -0.14700
C622        C  0.10260099  0.85292695  0.36773465     0.07400
C623        C  0.06586892  0.84417149  0.37138457    -0.14700
C624        C  0.05324816  0.85431453  0.41417402    -0.14700
C625        C  0.07712060  0.87409468  0.45485971     0.07400
C626        C  0.11328779  0.87972926  0.45144763    -0.14700
H627        H  0.15400702  0.87561557  0.40791824     0.11400
H628        H  0.04673191  0.82920453  0.34118512     0.11400
H629        H  0.02437870  0.84511115  0.41451812     0.11400
H630        H  0.13147723  0.88862256  0.48344530     0.11400
C631        C  0.07403948  0.83837154  0.05038056    -0.14700
C632        C  0.07780614  0.87359892  0.05024857     0.07400
C633        C  0.09106717  0.89506664  0.09476125    -0.14700
C634        C  0.10248413  0.88291481  0.13592941    -0.14700
C635        C  0.09938937  0.84833750  0.13485291     0.07400
C636        C  0.08454950  0.82592642  0.09213609    -0.14700
H637        H  0.06237450  0.82015934  0.01819046     0.11400
H638        H  0.09255135  0.92127926  0.09833646     0.11400
H639        H  0.11319188  0.90033782  0.16907259     0.11400
H640        H  0.08167718  0.79898416  0.09067339     0.11400
C641        C  0.06534871  0.94897689  0.01081157    -0.14700
C642        C  0.08413033  0.92917556  0.00480216     0.07400
C643        C  0.12293124  0.95032322  0.50437206    -0.14700
C644        C  0.14157977  0.98822960  0.50381374    -0.14700
C645        C  0.12279630  0.50781770  0.00440872     0.07400
C646        C  0.08425873  0.98747831  0.01044176    -0.14700
H647        H  0.03612802  0.93538404  0.01760507     0.11400
H648        H  0.13996970  0.93840343  0.50718408     0.11400
H649        H  0.17136739  0.00259143  0.50244547     0.11400
H650        H  0.06835521  0.00082107  0.01597610     0.11400
C651        C  0.40305489  0.76001286  0.44480846    -0.14700
C652        C  0.39059173  0.78509037  0.45249021     0.07400
C653        C  0.36992160  0.78849983  0.41301131    -0.14700
C654        C  0.35809276  0.76447005  0.37148665    -0.14700
C655        C  0.36804857  0.73752386  0.36664475     0.07400
C656        C  0.39172519  0.73644491  0.40293099    -0.14700
H657        H  0.42011025  0.75731645  0.47292783     0.11400
H658        H  0.36213872  0.80923618  0.41383024     0.11400
H659        H  0.34112449  0.76702841  0.34308068     0.11400
H660        H  0.40063123  0.71652020  0.39989164     0.11400
C661        C  0.38014606  0.77226398  0.14111662    -0.14700
C662        C  0.35881917  0.73429833  0.13469665     0.07400
C663        C  0.34694422  0.71974158  0.08625221    -0.14700
C664        C  0.35882107  0.74251680  0.04407047    -0.14700
C665        C  0.38309432  0.78069347  0.04929042     0.07400
C666        C  0.39091511  0.79527767  0.09903199    -0.14700
H667        H  0.38831279  0.78405634  0.17859780     0.11400
H668        H  0.32899466  0.69050954  0.08096064     0.11400
H669        H  0.34848132  0.72976548  0.00771482     0.11400
H670        H  0.40751898  0.82458266  0.10498537     0.11400
C671        C  0.50053331  0.84141652  0.04323666    -0.14700
C672        C  0.02164609  0.86784600  0.00636061     0.07400
C673        C  0.00178452  0.87545891  0.47015366    -0.14700
C674        C  0.46314598  0.85627327  0.46946630    -0.14700
C675        C  0.44246295  0.82948582  0.00605362     0.07400
C676        C  0.46239286  0.82188235  0.04177917    -0.14700
H677        H  0.01269915  0.83407854  0.07329753     0.11400
H678        H  0.01639484  0.89549827  0.44093997     0.11400
H679        H  0.44923898  0.86218890  0.43993258     0.11400
H680        H  0.44920201  0.79976110  0.06838954     0.11400
C681        C  0.40089843  0.86955439  0.01188428    -0.14700
C682        C  0.38153812  0.83101170  0.00599456     0.07400
C683        C  0.34286914  0.81316649  0.50486691    -0.14700
C684        C  0.32461109  0.83277210  0.00404335    -0.14700
C685        C  0.34394674  0.87140365  0.00393291     0.07400
C686        C  0.38240177  0.88945969  0.01059673    -0.14700
H687        H  0.43024291  0.88474934  0.01785409     0.11400
H688        H  0.32659007  0.78357634  0.50264960     0.07200
H689        H  0.29488859  0.81755170  0.00132684     0.11400
H690        H  0.39847484  0.91881520  0.01535026     0.11400
C691        C  0.39967988  0.80694526  0.50327808    -0.03900
C692        C  0.06464067  0.88627432  0.50392058    -0.03900
C693        C  0.14608445  0.55012588  0.50204363    -0.03900
C694        C  0.06672867  0.63468105  0.50185011    -0.03900
C695        C  0.40223935  0.55449323  0.49782644    -0.03900
C696        C  0.32119467  0.89085159  0.49954856    -0.03900
Fe697      Fe  0.09858881  0.77617652  0.75200626     1.65800
Fe698      Fe  0.18080550  0.77878108  0.75078953     1.73200
Fe699      Fe  0.17803193  0.85786831  0.75000875     1.54400
O700        O  0.14049561  0.85968711  0.70169239    -0.83100
O701        O  0.21290898  0.80909819  0.81071822    -0.81400
O702        O  0.09539641  0.80227016  0.68872333    -0.85600
O703        O  0.09347418  0.81252467  0.79984529    -0.80400
O704        O  0.20815979  0.85984996  0.68710403    -0.82200
O705        O  0.14567994  0.73924446  0.80181051    -0.85000
C706        C  0.11603823  0.84117760  0.82395018     0.95800
C707        C  0.11237355  0.83600212  0.67768981     1.03200
O708        O  0.15256838  0.80428386  0.75116282    -1.13900
O709        O  0.15202517  0.74724064  0.68994508    -0.76400
O710        O  0.09493816  0.73544284  0.70446403    -0.79900
O711        O  0.14991627  0.85960766  0.81270220    -0.80500
C712        C  0.11805321  0.73066323  0.67959520     0.94700
O713        O  0.09819767  0.74801449  0.81493991    -0.78500
O714        O  0.21942325  0.81423019  0.69970683    -0.83700
C715        C  0.22725801  0.84289747  0.82136283     0.97300
C716        C  0.22405709  0.84202210  0.67556826     1.03300
O717        O  0.21895549  0.86404299  0.79865707    -0.79300
C718        C  0.11694006  0.73313391  0.82601390     1.01600
Fe719      Fe  0.36943078  0.66549972  0.74959352     1.65800
Fe720      Fe  0.29029015  0.58410670  0.74956044     1.73200
Fe721      Fe  0.28786915  0.66273720  0.75208652     1.54400
O722        O  0.32576892  0.70510614  0.79952553    -0.83100
O723        O  0.26216038  0.58220875  0.68604906    -0.81400
O724        O  0.37110001  0.69366333  0.81392650    -0.85600
O725        O  0.37154789  0.70660090  0.70318286    -0.80400
O726        O  0.26028952  0.63555061  0.81565593    -0.82200
O727        O  0.32913549  0.58167790  0.70172094    -0.85000
C728        C  0.34739215  0.70955254  0.67815079     0.95800
C729        C  0.35414485  0.71063781  0.82417579     1.03200
O730        O  0.31589258  0.63748072  0.75065380    -1.13900
O731        O  0.31732012  0.58304546  0.81257240    -0.76400
O732        O  0.37437810  0.62792765  0.79601680    -0.79900
O733        O  0.31340934  0.69126972  0.68819886    -0.80500
C734        C  0.35153231  0.59993550  0.82140953     0.94700
O735        O  0.37122532  0.63953371  0.68473456    -0.78500
O736        O  0.24766617  0.57887038  0.79738858    -0.83700
C737        C  0.24366755  0.59766286  0.67776319     0.97300
C738        C  0.24267280  0.60143908  0.82387681     1.03300
O739        O  0.24627484  0.62395051  0.70489573    -0.79300
C740        C  0.35572989  0.60557456  0.67526390     1.01600
C741        C  0.23303421  0.84378746  0.58306465    -0.14700
C742        C  0.24825872  0.85332118  0.63142625     0.07400
C743        C  0.28642594  0.87224872  0.63727550    -0.14700
C744        C  0.30926196  0.88328906  0.59477102    -0.14700
C745        C  0.29441767  0.87599143  0.54535546     0.07400
C746        C  0.25575844  0.85433371  0.54049547    -0.14700
H747        H  0.20346767  0.82781104  0.57830373     0.11400
H748        H  0.29850776  0.87893269  0.67465925     0.11400
H749        H  0.33876754  0.89863287  0.60024048     0.11400
H750        H  0.24254125  0.84501647  0.50424635     0.11400
C751        C  0.30353987  0.85935874  0.91057484    -0.14700
C752        C  0.30026932  0.88142942  0.94851304     0.07400
C753        C  0.27661182  0.89530372  0.93864271    -0.14700
C754        C  0.25382085  0.88378955  0.89628992    -0.14700
C755        C  0.25419497  0.85825363  0.86254868     0.07400
C756        C  0.27988241  0.84693083  0.86916197    -0.14700
H757        H  0.32363236  0.85071492  0.91264080     0.11400
H758        H  0.27423679  0.91352426  0.96542151     0.11400
H759        H  0.23462424  0.89347213  0.89125866     0.11400
H760        H  0.28166167  0.82843644  0.84219981     0.11400
C761        C  0.35190304  0.55184339  0.94130990    -0.14700
C762        C  0.38951771  0.56359598  0.94765097     0.07400
C763        C  0.41365075  0.58351379  0.90746540    -0.14700
C764        C  0.40153964  0.59545526  0.86655224    -0.14700
C765        C  0.36464244  0.58626787  0.86316967     0.07400
C766        C  0.33975736  0.56329366  0.90014718    -0.14700
H767        H  0.33207107  0.53533622  0.96996806     0.11400
H768        H  0.44212239  0.59053705  0.90727770     0.11400
H769        H  0.42106086  0.61181559  0.83748092     0.11400
H770        H  0.31088591  0.55499055  0.89819349     0.11400
C771        C  0.37916088  0.59547002  0.54045292    -0.14700
C772        C  0.39191962  0.57035181  0.54461868     0.07400
C773        C  0.39661966  0.56073331  0.59401318    -0.14700
C774        C  0.38392696  0.57117922  0.63651131    -0.14700
C775        C  0.36884700  0.59386744  0.63111012     0.07400
C776        C  0.36782047  0.60696778  0.58310111    -0.14700
H777        H  0.37812336  0.60682355  0.50451186     0.11400
H778        H  0.40828467  0.54326967  0.59931458     0.11400
H779        H  0.38622283  0.56188246  0.67359913     0.11400
H780        H  0.35761001  0.62574124  0.57849172     0.11400
C781        C  0.33411597  0.95376255  0.53362249    -0.14700
C782        C  0.34422510  0.93341753  0.50147646     0.07400
C783        C  0.37181118  0.95330727  0.96512324    -0.14700
C784        C  0.39027226  0.99180141  0.96397057    -0.14700
C785        C  0.38219482  0.51194507  0.49952408     0.07400
C786        C  0.35224956  0.99170015  0.53230704    -0.14700
H787        H  0.31056566  0.94080896  0.55846874     0.11400
H788        H  0.37868993  0.93890278  0.93705386     0.11400
H789        H  0.41110485  0.50600689  0.93532215     0.11400
H790        H  0.34103726  0.00465195  0.55599679     0.11400
C791        C  0.05639854  0.65296667  0.59211112    -0.14700
C792        C  0.07913832  0.66018017  0.54908591     0.07400
C793        C  0.11551730  0.69027996  0.55148148    -0.14700
C794        C  0.12825042  0.71249371  0.59430651    -0.14700
C795        C  0.10499818  0.70568572  0.63589570     0.07400
C796        C  0.06898547  0.67587797  0.63447573    -0.14700
H797        H  0.02896328  0.62941111  0.59382089     0.11400
H798        H  0.13445536  0.69607048  0.52032309     0.11400
H799        H  0.15619081  0.73542304  0.59454407     0.11400
H800        H  0.05072879  0.66993000  0.66654602     0.11400
C801        C  0.07824985  0.69238708  0.95297798    -0.14700
C802        C  0.08050114  0.65995701  0.95389833     0.07400
C803        C  0.09811374  0.65423545  0.91171252    -0.14700
C804        C  0.10996665  0.67786463  0.87022063    -0.14700
C805        C  0.10495869  0.70814794  0.86939214     0.07400
C806        C  0.08925689  0.71531483  0.91126758    -0.14700
H807        H  0.06976841  0.70171660  0.98570823     0.11400
H808        H  0.10392769  0.63234051  0.90953068     0.11400
H809        H  0.12290960  0.67229754  0.83853811     0.11400
H810        H  0.08666642  0.73955753  0.91256955     0.11400
C811        C  0.46527210  0.61139268  0.49775408    -0.14700
C812        C  0.44469423  0.57304393  0.50030566     0.07400
C813        C  0.46429358  0.55451281  0.50814274    -0.14700
C814        C  0.50296694  0.57355318  0.50841938    -0.14700
C815        C  0.02369436  0.61191392  0.50081079     0.07400
C816        C  0.50338236  0.63013271  0.49762961    -0.14700
H817        H  0.45155176  0.62717142  0.49482751     0.11400
H818        H  0.45023317  0.52548487  0.51551408     0.11400
H819        H  0.01604453  0.55784653  0.01659192     0.11400
H820        H  0.01617420  0.65929805  0.49723409     0.11400
C821        C  0.15795945  0.55290896  0.59771385    -0.14700
C822        C  0.17269739  0.56110069  0.54808561     0.07400
C823        C  0.21136039  0.57782490  0.54305743    -0.14700
C824        C  0.23410975  0.58972899  0.58544234    -0.14700
C825        C  0.21907035  0.58491946  0.63397217     0.07400
C826        C  0.18086847  0.56574156  0.64009736    -0.14700
H827        H  0.12844945  0.53830151  0.60345689     0.11400
H828        H  0.22460753  0.58160532  0.50676628     0.11400
H829        H  0.26365533  0.60301462  0.58032908     0.11400
H830        H  0.16881644  0.56045296  0.67758201     0.11400
C831        C  0.19203286  0.60060704  0.94342373    -0.14700
C832        C  0.16775681  0.56288468  0.95127783     0.07400
C833        C  0.16498765  0.53857321  0.91199731    -0.14700
C834        C  0.18917450  0.55090703  0.87072080    -0.14700
C835        C  0.21561923  0.58808593  0.86601927     0.07400
C836        C  0.21589608  0.61293382  0.90196935    -0.14700
H837        H  0.19408782  0.62047906  0.97128846     0.11400
H838        H  0.14467897  0.50978037  0.91278872     0.11400
H839        H  0.18716688  0.53127269  0.84248631     0.11400
H840        H  0.23535816  0.64198492  0.89896581     0.11400
C841        C  0.12912474  0.59595089  0.04210291    -0.14700
C842        C  0.12262120  0.56914420  0.50518029     0.07400
C843        C  0.09601449  0.56263448  0.46806185    -0.14700
C844        C  0.07680332  0.58189662  0.46845710    -0.14700
C845        C  0.08430716  0.60956982  0.50483865     0.07400
C846        C  0.10943766  0.61411893  0.04333046    -0.14700
H847        H  0.15050086  0.60475556  0.07001212     0.11400
H848        H  0.09048349  0.54287753  0.43815281     0.11400
H849        H  0.05689723  0.57615676  0.43889718     0.11400
H850        H  0.11568887  0.63265891  0.07478493     0.11400
C851        C  0.12607895  0.87058610  0.90832394    -0.14700
C852        C  0.10260242  0.85292775  0.86773492     0.07400
C853        C  0.06586984  0.84417037  0.87138628    -0.14700
C854        C  0.05324931  0.85431379  0.91417548    -0.14700
C855        C  0.07712242  0.87409620  0.95485952     0.07400
C856        C  0.11329027  0.87973264  0.95144637    -0.14700
H857        H  0.15400981  0.87562005  0.90791617     0.11400
H858        H  0.04673220  0.82920153  0.84118817     0.11400
H859        H  0.02437944  0.84510869  0.91452096     0.11400
H860        H  0.13148020  0.88862688  0.98344304     0.11400
C861        C  0.07403673  0.83837007  0.55038203    -0.14700
C862        C  0.07780459  0.87359795  0.55024894     0.07400
C863        C  0.09106741  0.89506649  0.59476071    -0.14700
C864        C  0.10248475  0.88291480  0.63592879    -0.14700
C865        C  0.09938931  0.84833715  0.63485318     0.07400
C866        C  0.08454772  0.82592537  0.59213719    -0.14700
H867        H  0.06237041  0.82015724  0.51819257     0.11400
H868        H  0.09255266  0.92127959  0.59833518     0.11400
H869        H  0.11319364  0.90033849  0.66907142     0.11400
H870        H  0.08167470  0.79898280  0.59067495     0.11400
C871        C  0.06534858  0.94897675  0.51081012    -0.14700
C872        C  0.08412952  0.92917473  0.50480083     0.07400
C873        C  0.12293203  0.95032442  0.00437586    -0.14700
C874        C  0.14158003  0.98823075  0.00381902    -0.14700
C875        C  0.12279814  0.50781908  0.50440361     0.07400
C876        C  0.08425911  0.98747823  0.51043915    -0.14700
H877        H  0.03612795  0.93538430  0.51760461     0.11400
H878        H  0.13997060  0.93840519  0.00718933     0.11400
H879        H  0.17136767  0.00259291  0.00245211     0.11400
H880        H  0.06835612  0.00082138  0.51597415     0.11400
C881        C  0.40305663  0.76001345  0.94480537    -0.14700
C882        C  0.39059273  0.78509022  0.95248855     0.07400
C883        C  0.36992009  0.78849807  0.91301182    -0.14700
C884        C  0.35808943  0.76446718  0.87148847    -0.14700
C885        C  0.36804647  0.73752200  0.86664514     0.07400
C886        C  0.39172569  0.73644485  0.90292866    -0.14700
H887        H  0.42011367  0.75731810  0.97292311     0.11400
H888        H  0.36213631  0.80923374  0.91383165     0.11400
H889        H  0.34111902  0.76702402  0.84308456     0.11400
H890        H  0.40063272  0.71652101  0.89988796     0.11400
C891        C  0.38014144  0.77226304  0.64111869    -0.14700
C892        C  0.35881595  0.73429723  0.63469821     0.07400
C893        C  0.34694199  0.71974084  0.58625341    -0.14700
C894        C  0.35881880  0.74251645  0.54407190    -0.14700
C895        C  0.38309155  0.78069328  0.54929226     0.07400
C896        C  0.39091090  0.79527708  0.59903411    -0.14700
H897        H  0.38830706  0.78405520  0.67860001     0.11400
H898        H  0.32899310  0.69050869  0.58096126     0.11400
H899        H  0.34847954  0.72976528  0.50771621     0.11400
H900        H  0.40751394  0.82458201  0.60498795     0.11400
C901        C  0.50053169  0.84141789  0.54323945    -0.14700
C902        C  0.02164444  0.86784567  0.50636146     0.07400
C903        C  0.00178633  0.87545956  0.97015296    -0.14700
C904        C  0.46314782  0.85627365  0.96946494    -0.14700
C905        C  0.44246104  0.82948634  0.50605604     0.07400
C906        C  0.46239106  0.82188424  0.54178320    -0.14700
H907        H  0.01269774  0.83408082  0.57330125     0.11400
H908        H  0.01639680  0.89549953  0.94093984     0.11400
H909        H  0.44924094  0.86218989  0.93993209     0.11400
H910        H  0.44920021  0.79976440  0.56839541     0.11400
C911        C  0.40089647  0.86955462  0.51188472    -0.14700
C912        C  0.38153614  0.83101188  0.50599483     0.07400
C913        C  0.34287102  0.81316612  0.00486864    -0.14700
C914        C  0.32460931  0.83277263  0.50404101    -0.14700
C915        C  0.34394509  0.87140429  0.50393141     0.07400
C916        C  0.38239995  0.88946010  0.51059638    -0.14700
H917        H  0.43024080  0.88474944  0.51785541     0.11400
H918        H  0.32659197  0.78357598  0.00265191     0.07200
H919        H  0.29488702  0.81755241  0.50132352     0.11400
H920        H  0.39847300  0.91881555  0.51535053     0.11400
C921        C  0.89967510  0.30694527  0.00327942    -0.03900
C922        C  0.56463482  0.38627383  0.00392472    -0.03900
C923        C  0.64609096  0.05012551  0.00204825    -0.03900
C924        C  0.56673538  0.13468153  0.00185084    -0.03900
C925        C  0.90224706  0.05449219  0.99782757    -0.03900
C926        C  0.82119054  0.39085236  0.99955515    -0.03900
Fe927      Fe  0.59858135  0.27617310  0.25200828     1.65800
Fe928      Fe  0.68080026  0.27878155  0.25079264     1.73200
Fe929      Fe  0.67802328  0.35786702  0.25001222     1.54400
O930        O  0.64048792  0.35968476  0.20169427    -0.83100
O931        O  0.71290226  0.30909896  0.31072110    -0.81400
O932        O  0.59538778  0.30226792  0.18872724    -0.85600
O933        O  0.59346461  0.31251859  0.29985033    -0.80400
O934        O  0.70815362  0.35985081  0.18710911    -0.82200
O935        O  0.64567637  0.23924479  0.30181311    -0.85000
C936        C  0.61602778  0.34117270  0.32395380     0.95800
C937        C  0.61236535  0.33599976  0.17769293     1.03200
O938        O  0.65256114  0.30428244  0.25116542    -1.13900
O939        O  0.65202115  0.24724002  0.18994922    -0.76400
O940        O  0.59493340  0.23544203  0.20446297    -0.79900
O941        O  0.64990539  0.35960490  0.31270402    -0.80500
C942        C  0.61804960  0.23066234  0.17959715     0.94700
O943        O  0.59819055  0.24800942  0.31494032    -0.78500
O944        O  0.71941755  0.31423127  0.19971057    -0.83700
C945        C  0.72724941  0.34289770  0.32136709     0.97300
C946        C  0.72405170  0.34202368  0.17557330     1.03300
O947        O  0.71894583  0.36404272  0.29866239    -0.79300
C948        C  0.61693546  0.23313173  0.32601546     1.01600
Fe949      Fe  0.86944171  0.16550465  0.24959442     1.65800
Fe950      Fe  0.79030346  0.08410963  0.24956111     1.73200
Fe951      Fe  0.78787753  0.16273665  0.25208692     1.54400
O952        O  0.82577678  0.20510866  0.29952236    -0.83100
O953        O  0.76217382  0.08221040  0.18604841    -0.81400
O954        O  0.87110871  0.19366799  0.31392772    -0.85600
O955        O  0.87155483  0.20660397  0.20318312    -0.80400
O956        O  0.76030181  0.13555158  0.31565824    -0.82200
O957        O  0.82915031  0.08168274  0.20172293    -0.85000
C958        C  0.84739738  0.20955245  0.17815029     0.95800
C959        C  0.85415204  0.21064140  0.32417514     1.03200
O960        O  0.81590369  0.13748320  0.25065431    -1.13900
O961        O  0.81733415  0.08305067  0.31257393    -0.76400
O962        O  0.87439178  0.12793401  0.29601859    -0.79900
O963        O  0.81341468  0.19126691  0.18819760    -0.80500
C964        C  0.85154634  0.09994173  0.32141174     0.94700
O965        O  0.87123818  0.13953903  0.18473526    -0.78500
O966        O  0.74767785  0.07887159  0.29738808    -0.83700
C967        C  0.74367732  0.09766107  0.17776541     0.97300
C968        C  0.74268474  0.10143996  0.32387766     1.03300
O969        O  0.74628215  0.12394669  0.20490023    -0.79300
C970        C  0.85574384  0.10557977  0.17526514     1.01600
C971        C  0.73302950  0.34379253  0.08307013    -0.14700
C972        C  0.74825387  0.35332346  0.13143193     0.07400
C973        C  0.78642107  0.37224715  0.13728176    -0.14700
C974        C  0.80925733  0.38328698  0.09477745    -0.14700
C975        C  0.79441334  0.37599214  0.04536178     0.07400
C976        C  0.75575390  0.35433766  0.04050126    -0.14700
H977        H  0.70346291  0.32781876  0.07830878     0.11400
H978        H  0.79850264  0.37892858  0.17466560     0.11400
H979        H  0.83876299  0.39862826  0.10024728     0.11400
H980        H  0.74253652  0.34502224  0.00425209     0.11400
C981        C  0.80353166  0.35936003  0.41057762    -0.14700
C982        C  0.80025978  0.38142909  0.44851690     0.07400
C983        C  0.77660001  0.39530113  0.43864905    -0.14700
C984        C  0.75380920  0.38378717  0.39629632    -0.14700
C985        C  0.75418559  0.35825353  0.36255316     0.07400
C986        C  0.77987426  0.34693218  0.36916493    -0.14700
H987        H  0.82362542  0.35071781  0.41264242     0.11400
H988        H  0.77422351  0.41352002  0.46542912     0.11400
H989        H  0.73461119  0.39346812  0.39126644     0.11400
H990        H  0.78165472  0.32843910  0.34220148     0.11400
C991        C  0.85191481  0.05185072  0.44131481    -0.14700
C992        C  0.88952859  0.06359950  0.44765531     0.07400
C993        C  0.91366248  0.08351669  0.40746997    -0.14700
C994        C  0.90155279  0.09545951  0.36655619    -0.14700
C995        C  0.86465629  0.08627477  0.36317349     0.07400
C996        C  0.83977070  0.06330263  0.40015211    -0.14700
H997        H  0.83208221  0.03534473  0.46997300     0.11400
H998        H  0.94213344  0.09053786  0.40728270     0.11400
H999        H  0.92107434  0.11181833  0.33748447     0.11400
H1000       H  0.81089989  0.05500189  0.39819888     0.11400
C1001       C  0.87916308  0.09546544  0.04045173    -0.14700
C1002       C  0.89192766  0.07035192  0.04461878     0.07400
C1003       C  0.89663489  0.06074003  0.09401384    -0.14700
C1004       C  0.88394569  0.07118885  0.13651273    -0.14700
C1005       C  0.86886030  0.09387231  0.13111095     0.07400
C1006       C  0.86782485  0.10696517  0.08310020    -0.14700
H1007       H  0.87811942  0.10681418  0.00450965     0.11400
H1008       H  0.90830391  0.04327986  0.09931574     0.11400
H1009       H  0.88624779  0.06189749  0.17360142     0.11400
H1010       H  0.85760928  0.12573437  0.07848984     0.11400
C1011       C  0.83411439  0.45376347  0.03363229    -0.14700
C1012       C  0.84422153  0.43341816  0.00148358     0.07400
C1013       C  0.87180332  0.45330789  0.46512306    -0.14700
C1014       C  0.89026404  0.49180203  0.46396899    -0.14700
C1015       C  0.88220428  0.01194416  0.99952788     0.07400
C1016       C  0.85224624  0.49170096  0.03231391    -0.14700
H1017       H  0.81056651  0.44081031  0.05848259     0.11400
H1018       H  0.87868349  0.43890310  0.43705614     0.11400
H1019       H  0.91111500  0.00600752  0.43532422     0.11400
H1020       H  0.84103523  0.50465268  0.05600597     0.11400
C1021       C  0.55639971  0.15296579  0.09211036    -0.14700
C1022       C  0.57914267  0.16017867  0.04908865     0.07400
C1023       C  0.61552167  0.19027786  0.05148795    -0.14700
C1024       C  0.62825221  0.21249153  0.09431302    -0.14700
C1025       C  0.60499688  0.20568447  0.13589827     0.07400
C1026       C  0.56898405  0.17587726  0.13447494    -0.14700
H1027       H  0.52896396  0.12941106  0.09381737     0.11400
H1028       H  0.63446173  0.19606805  0.02033195     0.11400
H1029       H  0.65619275  0.23542023  0.09455339     0.11400
H1030       H  0.55072513  0.16993000  0.16654243     0.11400
C1031       C  0.57825311  0.19238679  0.45298298    -0.14700
C1032       C  0.58050853  0.15995902  0.45390391     0.07400
C1033       C  0.59812222  0.15423936  0.41171782    -0.14700
C1034       C  0.60997056  0.17786691  0.37022436    -0.14700
C1035       C  0.60495690  0.20814669  0.36939444     0.07400
C1036       C  0.58925498  0.21531254  0.41127067    -0.14700
H1037       H  0.56977266  0.20171651  0.48571422     0.11400
H1038       H  0.60394039  0.13234722  0.40953718     0.11400
H1039       H  0.62291461  0.17230134  0.33854166     0.11400
H1040       H  0.58666113  0.23955328  0.41257192     0.11400
C1041       C  0.96527926  0.11139240  0.99774987    -0.14700
C1042       C  0.94470187  0.07304376  0.00030582     0.07400
C1043       C  0.96430146  0.05451338  0.00814675    -0.14700
C1044       C  0.00297468  0.07355402  0.00842336    -0.14700
C1045       C  0.52370160  0.11191404  0.00080915     0.07400
C1046       C  0.00338945  0.13013254  0.99762212    -0.14700
H1047       H  0.95155847  0.12717060  0.99482052     0.11400
H1048       H  0.95024113  0.02548580  0.01552145     0.11400
H1049       H  0.51605463  0.05784602  0.51659046     0.11400
H1050       H  0.51618167  0.15929799  0.99721886     0.11400
C1051       C  0.65796688  0.05291250  0.09771911    -0.14700
C1052       C  0.67270408  0.06110047  0.04809026     0.07400
C1053       C  0.71136654  0.07781928  0.04306103    -0.14700
C1054       C  0.73411676  0.08972170  0.08544514    -0.14700
C1055       C  0.71907881  0.08491653  0.13397538     0.07400
C1056       C  0.68087697  0.06574440  0.14010176    -0.14700
H1057       H  0.62845707  0.03830876  0.10346306     0.11400
H1058       H  0.72461247  0.08159624  0.00676963     0.11400
H1059       H  0.76366189  0.10300319  0.08033083     0.11400
H1060       H  0.66882566  0.06045949  0.17758686     0.11400
C1061       C  0.69204690  0.10060795  0.44342609    -0.14700
C1062       C  0.66776775  0.06288584  0.45127706     0.07400
C1063       C  0.66499639  0.03857496  0.41199435    -0.14700
C1064       C  0.68918356  0.05090853  0.37071815    -0.14700
C1065       C  0.71563112  0.08808678  0.36601977     0.07400
C1066       C  0.71591055  0.11293449  0.40197234    -0.14700
H1067       H  0.69410372  0.12047969  0.47129264     0.11400
H1068       H  0.64468545  0.00978257  0.41278389     0.11400
H1069       H  0.68717403  0.03127472  0.34248155     0.11400
H1070       H  0.73537489  0.14198519  0.39897112     0.11400
C1071       C  0.62914041  0.09595683  0.54209895    -0.14700
C1072       C  0.62262851  0.06914474  0.00518266     0.07400
C1073       C  0.59602122  0.06263420  0.96806457    -0.14700
C1074       C  0.57681045  0.08189682  0.96845872    -0.14700
C1075       C  0.58431516  0.10957124  0.00483861     0.07400
C1076       C  0.60945389  0.11412566  0.54332820    -0.14700
H1077       H  0.65051905  0.10476274  0.57000468     0.11400
H1078       H  0.59048909  0.04287588  0.93815707     0.11400
H1079       H  0.55690273  0.07615503  0.93890040     0.11400
H1080       H  0.61570864  0.13266840  0.57477992     0.11400
C1081       C  0.62606906  0.37058133  0.40832741    -0.14700
C1082       C  0.60259181  0.35292206  0.36773930     0.07400
C1083       C  0.56585904  0.34416382  0.37139206    -0.14700
C1084       C  0.55323930  0.35430836  0.41418116    -0.14700
C1085       C  0.57711355  0.37409291  0.45486332     0.07400
C1086       C  0.61328107  0.37972883  0.45144966    -0.14700
H1087       H  0.65399986  0.37561558  0.40791886     0.11400
H1088       H  0.54672083  0.32919385  0.34119514     0.11400
H1089       H  0.52436929  0.34510250  0.41452812     0.11400
H1090       H  0.63147162  0.38862411  0.48344605     0.11400
C1091       C  0.57402859  0.33836855  0.05038610    -0.14700
C1092       C  0.57779862  0.37359733  0.05025265     0.07400
C1093       C  0.59106323  0.39506641  0.09476361    -0.14700
C1094       C  0.60247967  0.38291393  0.13593156    -0.14700
C1095       C  0.59938138  0.34833505  0.13485667     0.07400
C1096       C  0.58453835  0.32592298  0.09214137    -0.14700
H1097       H  0.56236103  0.32015553  0.01819702     0.11400
H1098       H  0.59255037  0.42128040  0.09833783     0.11400
H1099       H  0.61319005  0.40033800  0.16907358     0.11400
H1100       H  0.58166342  0.29897959  0.09067966     0.11400
C1101       C  0.56534121  0.44897532  0.01081393    -0.14700
C1102       C  0.58412302  0.42917418  0.00480486     0.07400
C1103       C  0.62292580  0.45032428  0.50437139    -0.14700
C1104       C  0.64157383  0.48823075  0.50381223    -0.14700
C1105       C  0.62280438  0.00781902  0.00440945     0.07400
C1106       C  0.58425072  0.48747662  0.01044239    -0.14700
H1107       H  0.53612058  0.43538243  0.01760857     0.11400
H1108       H  0.63996472  0.43840505  0.50718368     0.11400
H1109       H  0.67136149  0.50259314  0.50244386     0.11400
H1110       H  0.56834688  0.50081901  0.01597668     0.11400
C1111       C  0.90305465  0.26001618  0.44481056    -0.14700
C1112       C  0.89058786  0.28509089  0.45249235     0.07400
C1113       C  0.86991575  0.28849736  0.41301366    -0.14700
C1114       C  0.85808978  0.26446797  0.37148835    -0.14700
C1115       C  0.86805017  0.23752509  0.36664571     0.07400
C1116       C  0.89172787  0.23644877  0.40293246    -0.14700
H1117       H  0.92011111  0.25732170  0.47293011     0.11400
H1118       H  0.86212924  0.30923093  0.41383311     0.11400
H1119       H  0.84112004  0.26702402  0.34308251     0.11400
H1120       H  0.90063699  0.21652649  0.39989308     0.11400
C1121       C  0.88014149  0.27226300  0.14111923    -0.14700
C1122       C  0.85881868  0.23429710  0.13469829     0.07400
C1123       C  0.84694275  0.21974053  0.08625400    -0.14700
C1124       C  0.85881636  0.24251635  0.04407289    -0.14700
C1125       C  0.88308729  0.28069335  0.04929334     0.07400
C1126       C  0.89090706  0.29527720  0.09903523    -0.14700
H1127       H  0.88830796  0.28405518  0.17860052     0.11400
H1128       H  0.82899517  0.19050825  0.08096197     0.11400
H1129       H  0.84847665  0.22976506  0.00771709     0.11400
H1130       H  0.90750855  0.32458215  0.10498911     0.11400
C1131       C  0.00052610  0.34141845  0.04324361    -0.14700
C1132       C  0.52163895  0.36784556  0.00636518     0.07400
C1133       C  0.50177924  0.37545879  0.47015477    -0.14700
C1134       C  0.96314067  0.35627344  0.46946762    -0.14700
C1135       C  0.94245608  0.32948641  0.00605800     0.07400
C1136       C  0.96238576  0.32188432  0.04178575    -0.14700
H1137       H  0.51269185  0.33408213  0.07330658     0.11400
H1138       H  0.51638964  0.39549636  0.44093904     0.11400
H1139       H  0.94923376  0.36218754  0.43993242     0.11400
H1140       H  0.94919503  0.29976407  0.06839746     0.11400
C1141       C  0.90089192  0.36955461  0.01188719    -0.14700
C1142       C  0.88153138  0.33101190  0.00599655     0.07400
C1143       C  0.84286340  0.31316686  0.50486977    -0.14700
C1144       C  0.82460465  0.33277299  0.00404628    -0.14700
C1145       C  0.84394061  0.37140463  0.00393685     0.07400
C1146       C  0.88239557  0.38946030  0.01060047    -0.14700
H1147       H  0.93023631  0.38474935  0.01785730     0.11400
H1148       H  0.82658449  0.28357670  0.50265320     0.07200
H1149       H  0.79488230  0.31755295  0.00132999     0.11400
H1150       H  0.89846873  0.41881562  0.01535455     0.11400
C1151       C  0.89967466  0.30694605  0.50328012    -0.03900
C1152       C  0.56463505  0.38627475  0.50392336    -0.03900
C1153       C  0.64609203  0.05012517  0.50204540    -0.03900
C1154       C  0.56673701  0.13468205  0.50185396    -0.03900
C1155       C  0.90224795  0.05449315  0.49782906    -0.03900
C1156       C  0.82118839  0.39085192  0.49955267    -0.03900
Fe1157     Fe  0.59858413  0.27617594  0.75200904     1.65800
Fe1158     Fe  0.68080304  0.27878482  0.75079374     1.73200
Fe1159     Fe  0.67802539  0.35786988  0.75001393     1.54400
O1160       O  0.64048935  0.35968740  0.70169591    -0.83100
O1161       O  0.71290458  0.30910178  0.81072307    -0.81400
O1162       O  0.59539062  0.30227021  0.68872696    -0.85600
O1163       O  0.59346668  0.31252158  0.79984980    -0.80400
O1164       O  0.70815548  0.35985394  0.68711054    -0.82200
O1165       O  0.64567850  0.23924705  0.80181302    -0.85000
C1166       C  0.61602967  0.34117494  0.82395475     0.95800
C1167       C  0.61236741  0.33600223  0.67769335     1.03200
O1168       O  0.65256376  0.30428546  0.75116666    -1.13900
O1169       O  0.65202465  0.24724429  0.68994911    -0.76400
O1170       O  0.59493655  0.23544430  0.70446507    -0.79900
O1171       O  0.64990750  0.35960695  0.81270618    -0.80500
C1172       C  0.61805295  0.23066565  0.67959801     0.94700
O1173       O  0.59819388  0.24801332  0.81494209    -0.78500
O1174       O  0.71942054  0.31423518  0.69971260    -0.83700
C1175       C  0.72725206  0.34290064  0.82136877     0.97300
C1176       C  0.72405381  0.34202705  0.67557474     1.03300
O1177       O  0.71894843  0.36404565  0.79866392    -0.79300
C1178       C  0.61693807  0.23313466  0.82601615     1.01600
Fe1179     Fe  0.86943846  0.16550231  0.74959575     1.65800
Fe1180     Fe  0.79029983  0.08410712  0.74956260     1.73200
Fe1181     Fe  0.78787461  0.16273526  0.75208722     1.54400
O1182       O  0.82577268  0.20510619  0.79952483    -0.83100
O1183       O  0.76217009  0.08220767  0.68605026    -0.81400
O1184       O  0.87110583  0.19366690  0.81392764    -0.85600
O1185       O  0.87155280  0.20660130  0.70318222    -0.80400
O1186       O  0.76029734  0.13554933  0.81565726    -0.82200
O1187       O  0.82914631  0.08167939  0.70172443    -0.85000
C1188       C  0.84739588  0.20955178  0.67815102     0.95800
C1189       C  0.85414873  0.21063964  0.82417617     1.03200
O1190       O  0.81590037  0.13748112  0.75065517    -1.13900
O1191       O  0.81733009  0.08304757  0.81257517    -0.76400
O1192       O  0.87438748  0.12793214  0.79602184    -0.79900
O1193       O  0.81341324  0.19126752  0.68819939    -0.80500
C1194       C  0.85154211  0.09993900  0.82141358     0.94700
O1195       O  0.87123525  0.13953555  0.68473819    -0.78500
O1196       O  0.74767482  0.07886942  0.79738992    -0.83700
C1197       C  0.74367525  0.09765974  0.67776492     0.97300
C1198       C  0.74268143  0.10143797  0.82387848     1.03300
O1199       O  0.74628070  0.12394634  0.70489806    -0.79300
C1200       C  0.85574069  0.10557633  0.67526773     1.01600
C1201       C  0.73302973  0.34378984  0.58307161    -0.14700
C1202       C  0.74825499  0.35332618  0.63143251     0.07400
C1203       C  0.78642233  0.37225432  0.63728076    -0.14700
C1204       C  0.80925761  0.38329260  0.59477561    -0.14700
C1205       C  0.79441246  0.37599271  0.54536055     0.07400
C1206       C  0.75575321  0.35433436  0.54050188    -0.14700
H1207       H  0.70346307  0.32781254  0.57831170     0.11400
H1208       H  0.79850471  0.37894001  0.67466415     0.11400
H1209       H  0.83876344  0.39863704  0.60024406     0.11400
H1210       H  0.74253552  0.34501543  0.50425335     0.11400
C1211       C  0.80353384  0.35936126  0.91057937    -0.14700
C1212       C  0.80026307  0.38143118  0.94851836     0.07400
C1213       C  0.77660531  0.39530543  0.93864922    -0.14700
C1214       C  0.75381444  0.38379192  0.89629647    -0.14700
C1215       C  0.75418887  0.35825667  0.86255440     0.07400
C1216       C  0.77987639  0.34693387  0.86916673    -0.14700
H1217       H  0.82362663  0.35071774  0.91264445     0.11400
H1218       H  0.77423013  0.41352549  0.96542876     0.11400
H1219       H  0.73461763  0.39347438  0.89126591     0.11400
H1220       H  0.78165574  0.32843989  0.84220393     0.11400
C1221       C  0.85191178  0.05184384  0.94131176    -0.14700
C1222       C  0.88952627  0.06359586  0.94765304     0.07400
C1223       C  0.91365970  0.08351460  0.90746816    -0.14700
C1224       C  0.90154924  0.09545789  0.86655614    -0.14700
C1225       C  0.86465224  0.08627117  0.86317372     0.07400
C1226       C  0.83976677  0.06329591  0.90015019    -0.14700
H1227       H  0.83207952  0.03533594  0.96996911     0.11400
H1228       H  0.94213108  0.09053727  0.90728018     0.11400
H1229       H  0.92107070  0.11181878  0.83748549     0.11400
H1230       H  0.81089538  0.05499312  0.89819649     0.11400
C1231       C  0.87916974  0.09546996  0.54045620    -0.14700
C1232       C  0.89192813  0.07035144  0.54462167     0.07400
C1233       C  0.89662851  0.06073315  0.59401616    -0.14700
C1234       C  0.88393719  0.07118022  0.63651474    -0.14700
C1235       C  0.86885802  0.09386922  0.63111389     0.07400
C1236       C  0.86783062  0.10696875  0.58310468    -0.14700
H1237       H  0.87813173  0.10682320  0.50451518     0.11400
H1238       H  0.90829319  0.04326915  0.59931743     0.11400
H1239       H  0.88623340  0.06188371  0.67360241     0.11400
H1240       H  0.85762029  0.12574235  0.57849527     0.11400
C1241       C  0.83410865  0.45376318  0.53362329    -0.14700
C1242       C  0.84421840  0.43341789  0.50147883     0.07400
C1243       C  0.87180502  0.45330816  0.96512616    -0.14700
C1244       C  0.89026476  0.49180213  0.96397095    -0.14700
C1245       C  0.88220342  0.01194494  0.49952593     0.07400
C1246       C  0.85224121  0.49170065  0.53230571    -0.14700
H1247       H  0.81055847  0.44080986  0.55846981     0.11400
H1248       H  0.87868418  0.43890334  0.93705783     0.11400
H1249       H  0.91111260  0.00600654  0.93532232     0.11400
H1250       H  0.84102847  0.50465249  0.55599422     0.11400
C1251       C  0.55640378  0.15296623  0.59211460    -0.14700
C1252       C  0.57914525  0.16017998  0.54909107     0.07400
C1253       C  0.61552347  0.19028086  0.55148801    -0.14700
C1254       C  0.62825425  0.21249552  0.59431231    -0.14700
C1255       C  0.60500012  0.20568751  0.63589932     0.07400
C1256       C  0.56898827  0.17587848  0.63447836    -0.14700
H1257       H  0.52896887  0.12941008  0.59382345     0.11400
H1258       H  0.63446267  0.19607185  0.52033068     0.11400
H1259       H  0.65619415  0.23542568  0.59455090     0.11400
H1260       H  0.55073028  0.16993038  0.66654727     0.11400
C1261       C  0.57825668  0.19238949  0.95298380    -0.14700
C1262       C  0.58050789  0.15995927  0.95390162     0.07400
C1263       C  0.59811703  0.15423694  0.91171241    -0.14700
C1264       C  0.60996692  0.17786564  0.87022017    -0.14700
C1265       C  0.60495895  0.20814900  0.86939442     0.07400
C1266       C  0.58926053  0.21531672  0.91127299    -0.14700
H1267       H  0.56977636  0.20171880  0.98571579     0.11400
H1268       H  0.60392985  0.13234126  0.90952786     0.11400
H1269       H  0.62290735  0.17229800  0.83853490     0.11400
H1270       H  0.58667014  0.23955939  0.91257662     0.11400
C1271       C  0.96528039  0.11139255  0.49775643    -0.14700
C1272       C  0.94470276  0.07304385  0.50030869     0.07400
C1273       C  0.96430222  0.05451295  0.50814689    -0.14700
C1274       C  0.00297567  0.07355361  0.50842407    -0.14700
C1275       C  0.52370284  0.11191417  0.50081399     0.07400
C1276       C  0.00339055  0.13013268  0.49763123    -0.14700
H1277       H  0.95155993  0.12717112  0.49482916     0.11400
H1278       H  0.95024176  0.02548508  0.51551868     0.11400
H1279       H  0.51605379  0.05784702  0.01659268     0.11400
H1280       H  0.51618230  0.15929803  0.49723389     0.11400
C1281       C  0.65796659  0.05291027  0.59771599    -0.14700
C1282       C  0.67270456  0.06109888  0.54808770     0.07400
C1283       C  0.71136715  0.07781826  0.54305951    -0.14700
C1284       C  0.73411667  0.08972111  0.58544431    -0.14700
C1285       C  0.71907778  0.08491540  0.63397400     0.07400
C1286       C  0.68087586  0.06574222  0.64009933    -0.14700
H1287       H  0.62845653  0.03830609  0.60345912     0.11400
H1288       H  0.72461363  0.08159564  0.50676845     0.11400
H1289       H  0.76366197  0.10300329  0.58033097     0.11400
H1290       H  0.66882403  0.06045682  0.67758386     0.11400
C1291       C  0.69204464  0.10060740  0.94342716    -0.14700
C1292       C  0.66776627  0.06288539  0.95127962     0.07400
C1293       C  0.66499543  0.03857376  0.91199826    -0.14700
C1294       C  0.68918240  0.05090688  0.87072197    -0.14700
C1295       C  0.71562880  0.08808523  0.86602161     0.07400
C1296       C  0.71590793  0.11293347  0.90197306    -0.14700
H1297       H  0.69410111  0.12047957  0.97129287     0.11400
H1298       H  0.64468516  0.00978136  0.91278886     0.11400
H1299       H  0.68717334  0.03127250  0.84248635     0.11400
H1300       H  0.73537166  0.14198423  0.89897055     0.11400
C1301       C  0.62913717  0.09595570  0.04210044    -0.14700
C1302       C  0.62263029  0.06914522  0.50518126     0.07400
C1303       C  0.59602262  0.06263515  0.46806417    -0.14700
C1304       C  0.57681202  0.08189794  0.46845984    -0.14700
C1305       C  0.58431707  0.10957199  0.50484052     0.07400
C1306       C  0.60945023  0.11412391  0.04332840    -0.14700
H1307       H  0.65051498  0.10476156  0.07000760     0.11400
H1308       H  0.59048999  0.04287705  0.43815627     0.11400
H1309       H  0.55690454  0.07615702  0.43890157     0.11400
H1310       H  0.61570328  0.13266540  0.07478144     0.11400
C1311       C  0.62607045  0.37058362  0.90832815    -0.14700
C1312       C  0.60259320  0.35292359  0.86774037     0.07400
C1313       C  0.56585997  0.34416382  0.87139356    -0.14700
C1314       C  0.55323982  0.35430779  0.91418273    -0.14700
C1315       C  0.57711405  0.37409324  0.95486439     0.07400
C1316       C  0.61328211  0.37973058  0.95145047    -0.14700
H1317       H  0.65400166  0.37561892  0.90791942     0.11400
H1318       H  0.54672179  0.32919314  0.84119700     0.11400
H1319       H  0.52436949  0.34510076  0.91453026     0.11400
H1320       H  0.63147262  0.38862595  0.98344653     0.11400
C1321       C  0.57402745  0.33836922  0.55038718    -0.14700
C1322       C  0.57779912  0.37359869  0.55025190     0.07400
C1323       C  0.59106615  0.39506910  0.59476143    -0.14700
C1324       C  0.60248310  0.38291708  0.63592958    -0.14700
C1325       C  0.59938315  0.34833740  0.63485659     0.07400
C1326       C  0.58453785  0.32592420  0.59214264    -0.14700
H1327       H  0.56235841  0.32015540  0.51819930     0.11400
H1328       H  0.59255481  0.42128386  0.59833440     0.11400
H1329       H  0.61319529  0.40034227  0.66907035     0.11400
H1330       H  0.58166160  0.29898027  0.59068201     0.11400
C1331       C  0.56534275  0.44897695  0.51081012    -0.14700
C1332       C  0.58412405  0.42917525  0.50480150     0.07400
C1333       C  0.62292479  0.45032346  0.00437693    -0.14700
C1334       C  0.64157232  0.48822985  0.00381842    -0.14700
C1335       C  0.62280484  0.00781849  0.50440540     0.07400
C1336       C  0.58425266  0.48747830  0.51043772    -0.14700
H1337       H  0.53612221  0.43538441  0.51760526     0.11400
H1338       H  0.63996366  0.43840478  0.00719060     0.11400
H1339       H  0.67136009  0.50259248  0.00245075     0.11400
H1340       H  0.56834917  0.50082093  0.51597229     0.11400
C1341       C  0.90305388  0.26001516  0.94480952    -0.14700
C1342       C  0.89058750  0.28509012  0.95249179     0.07400
C1343       C  0.86991470  0.28849645  0.91301402    -0.14700
C1344       C  0.85808734  0.26446645  0.87148950    -0.14700
C1345       C  0.86804757  0.23752350  0.86664633     0.07400
C1346       C  0.89172624  0.23644754  0.90293178    -0.14700
H1347       H  0.92011086  0.25732077  0.97292842     0.11400
H1348       H  0.86212850  0.30923032  0.91383371     0.11400
H1349       H  0.84111686  0.26702214  0.84308461     0.11400
H1350       H  0.90063538  0.21652526  0.89989173     0.11400
C1351       C  0.88013820  0.27226299  0.64112024    -0.14700
C1352       C  0.85881765  0.23429686  0.63469903     0.07400
C1353       C  0.84694399  0.21974028  0.58625420    -0.14700
C1354       C  0.85881740  0.24251639  0.54407324    -0.14700
C1355       C  0.88308661  0.28069379  0.54929405     0.07400
C1356       C  0.89090412  0.29527733  0.59903618    -0.14700
H1357       H  0.88830283  0.28405524  0.67860191     0.11400
H1358       H  0.82899806  0.19050783  0.58096165     0.11400
H1359       H  0.84847887  0.22976489  0.50771739     0.11400
H1360       H  0.90750413  0.32458253  0.60499041     0.11400
C1361       C  0.00052644  0.34142248  0.54324618    -0.14700
C1362       C  0.52163905  0.36784721  0.50636483     0.07400
C1363       C  0.50177959  0.37545829  0.97015582    -0.14700
C1364       C  0.96314117  0.35627312  0.96946817    -0.14700
C1365       C  0.94245578  0.32948806  0.50605927     0.07400
C1366       C  0.96238588  0.32188851  0.54178947    -0.14700
H1367       H  0.51269256  0.33408794  0.57331052     0.11400
H1368       H  0.51639033  0.39549690  0.94094141     0.11400
H1369       H  0.94923440  0.36218860  0.93993395     0.11400
H1370       H  0.94919551  0.29977016  0.56840404     0.11400
C1371       C  0.90089062  0.36955527  0.51188528    -0.14700
C1372       C  0.88153044  0.33101239  0.50599616     0.07400
C1373       C  0.84286437  0.31316665  0.00487016    -0.14700
C1374       C  0.82460336  0.33277295  0.50404538    -0.14700
C1375       C  0.84393892  0.37140463  0.50393501     0.07400
C1376       C  0.88239393  0.38946063  0.51059794    -0.14700
H1377       H  0.93023519  0.38475043  0.51785458     0.11400
H1378       H  0.82658518  0.28357653  0.00265295     0.07200
H1379       H  0.79488091  0.31755255  0.50132938     0.11400
H1380       H  0.89846691  0.41881615  0.51535116     0.11400
C1381       C  0.89968186  0.80694515  0.00327626    -0.03900
C1382       C  0.56464220  0.88627528  0.00392052    -0.03900
C1383       C  0.64608216  0.55012428  0.00204714    -0.03900
C1384       C  0.56672743  0.63468037  0.00184867    -0.03900
C1385       C  0.90223896  0.55449315  0.99782555    -0.03900
C1386       C  0.82119632  0.89085085  0.99955053    -0.03900
Fe1387     Fe  0.59858705  0.77617578  0.25200515     1.65800
Fe1388     Fe  0.68080360  0.77877962  0.25078925     1.73200
Fe1389     Fe  0.67803079  0.85786749  0.25000791     1.54400
O1390       O  0.64049553  0.85968702  0.20169126    -0.83100
O1391       O  0.71290728  0.80909723  0.31071736    -0.81400
O1392       O  0.59539505  0.80227052  0.18872353    -0.85600
O1393       O  0.59347285  0.81252327  0.29984597    -0.80400
O1394       O  0.70815924  0.85984881  0.18710380    -0.82200
O1395       O  0.64567843  0.73924388  0.30181089    -0.85000
C1396       C  0.61603681  0.84117680  0.32394978     0.95800
C1397       C  0.61237305  0.83600233  0.17768947     1.03200
O1398       O  0.65256674  0.80428281  0.25116201    -1.13900
O1399       O  0.65202276  0.74723798  0.18994584    -0.76400
O1400       O  0.59493627  0.73544309  0.20446114    -0.79900
O1401       O  0.64991470  0.85960740  0.31270082    -0.80500
C1402       C  0.61805107  0.73066184  0.17959442     0.94700
O1403       O  0.59819473  0.74801201  0.31493739    -0.78500
O1404       O  0.71942134  0.81422805  0.19970604    -0.83700
C1405       C  0.72725602  0.84289642  0.32136218     0.97300
C1406       C  0.72405618  0.84202054  0.17556806     1.03300
O1407       O  0.71895359  0.86404195  0.29865658    -0.79300
C1408       C  0.61693770  0.73313232  0.32601274     1.01600
Fe1409     Fe  0.86943449  0.66550271  0.24959259     1.65800
Fe1410     Fe  0.79029412  0.58411008  0.24955912     1.73200
Fe1411     Fe  0.78787276  0.66273974  0.25208467     1.54400
O1412       O  0.82577349  0.70510978  0.29952188    -0.83100
O1413       O  0.76216457  0.58221191  0.18604708    -0.81400
O1414       O  0.87110273  0.69366490  0.31392680    -0.85600
O1415       O  0.87155112  0.70660435  0.20318382    -0.80400
O1416       O  0.76029417  0.63555443  0.31565516    -0.82200
O1417       O  0.82913997  0.58168183  0.20172017    -0.85000
C1418       C  0.84739522  0.70955416  0.17814942     0.95800
C1419       C  0.85414815  0.71064025  0.32417448     1.03200
O1420       O  0.81589634  0.63748365  0.25065242    -1.13900
O1421       O  0.81732419  0.58304957  0.31257177    -0.76400
O1422       O  0.87438250  0.62793016  0.29601426    -0.79900
O1423       O  0.81341222  0.69127019  0.18819575    -0.80500
C1424       C  0.85153652  0.59993897  0.32140838     0.94700
O1425       O  0.87122896  0.63953774  0.18473237    -0.78500
O1426       O  0.74766963  0.57887401  0.29738636    -0.83700
C1427       C  0.74367019  0.59766463  0.17776280     0.97300
C1428       C  0.74267656  0.60144278  0.32387500     1.03300
O1429       O  0.74627714  0.62395183  0.20489610    -0.79300
C1430       C  0.85573360  0.60557853  0.17526208     1.01600
C1431       C  0.73303437  0.84379038  0.08306444    -0.14700
C1432       C  0.74825843  0.85331969  0.13142659     0.07400
C1433       C  0.78642559  0.87224250  0.13727672    -0.14700
C1434       C  0.80926210  0.88328327  0.09477268    -0.14700
C1435       C  0.79441855  0.87599007  0.04535676     0.07400
C1436       C  0.75575903  0.85433626  0.04049570    -0.14700
H1437       H  0.70346771  0.82781739  0.07830263     0.11400
H1438       H  0.79850695  0.87892278  0.17466075     0.11400
H1439       H  0.83876779  0.89862401  0.10024305     0.11400
H1440       H  0.74254178  0.84502208  0.00424633     0.11400
C1441       C  0.80353911  0.85936018  0.41057276    -0.14700
C1442       C  0.80026708  0.88142939  0.44851184     0.07400
C1443       C  0.77660748  0.89530147  0.43864318    -0.14700
C1444       C  0.75381638  0.88378676  0.39629070    -0.14700
C1445       C  0.75419247  0.85825253  0.36254820     0.07400
C1446       C  0.77988153  0.84693173  0.36916016    -0.14700
H1447       H  0.82363299  0.85071813  0.41263795     0.11400
H1448       H  0.77423107  0.91352068  0.46542286     0.11400
H1449       H  0.73461826  0.89346764  0.39126045     0.11400
H1450       H  0.78166205  0.82843849  0.34219685     0.11400
C1451       C  0.85190561  0.55184988  0.44131273    -0.14700
C1452       C  0.88951952  0.56359883  0.44765277     0.07400
C1453       C  0.91365304  0.58351521  0.40746687    -0.14700
C1454       C  0.90154285  0.59545676  0.36655236    -0.14700
C1455       C  0.86464625  0.58627185  0.36316994     0.07400
C1456       C  0.83976105  0.56330076  0.40014953    -0.14700
H1457       H  0.83207330  0.53534453  0.46997169     0.11400
H1458       H  0.94212418  0.59053681  0.40727980     0.11400
H1459       H  0.92106413  0.61181506  0.33748016     0.11400
H1460       H  0.81089014  0.55500017  0.39819666     0.11400
C1461       C  0.87915454  0.59546612  0.04044909    -0.14700
C1462       C  0.89191963  0.57035305  0.04461636     0.07400
C1463       C  0.89662651  0.56074088  0.09401135    -0.14700
C1464       C  0.88393596  0.57118839  0.13650992    -0.14700
C1465       C  0.86884973  0.59387104  0.13110788     0.07400
C1466       C  0.86781508  0.60696477  0.08309740    -0.14700
H1467       H  0.87811117  0.60681504  0.00450703     0.11400
H1468       H  0.90829599  0.54328103  0.09931334     0.11400
H1469       H  0.88623783  0.56189685  0.17359856     0.11400
H1470       H  0.85759931  0.62573376  0.07848716     0.11400
C1471       C  0.83412124  0.95376183  0.03363081    -0.14700
C1472       C  0.84422736  0.93341675  0.00147995     0.07400
C1473       C  0.87181087  0.95330807  0.46512201    -0.14700
C1474       C  0.89027268  0.99180232  0.46397009    -0.14700
C1475       C  0.88219628  0.51194523  0.99952685     0.07400
C1476       C  0.85225429  0.99169951  0.03231484    -0.14700
H1477       H  0.81057353  0.94080850  0.05848118     0.11400
H1478       H  0.87869106  0.93890358  0.43705439     0.11400
H1479       H  0.91110587  0.50600689  0.43532222     0.11400
H1480       H  0.84104401  0.00465114  0.05600862     0.11400
C1481       C  0.55639495  0.65296782  0.09210776    -0.14700
C1482       C  0.57913658  0.66017898  0.04908507     0.07400
C1483       C  0.61551674  0.69027640  0.05148322    -0.14700
C1484       C  0.62824978  0.71248973  0.09430855    -0.14700
C1485       C  0.60499602  0.70568406  0.13589526     0.07400
C1486       C  0.56898196  0.67587883  0.13447265    -0.14700
H1487       H  0.52895836  0.62941441  0.09381553     0.11400
H1488       H  0.63445580  0.69606516  0.02032656     0.11400
H1489       H  0.65619115  0.73541701  0.09454809     0.11400
H1490       H  0.55072400  0.66993265  0.16654119     0.11400
C1491       C  0.57824461  0.69238406  0.45297524    -0.14700
C1492       C  0.58050128  0.65995709  0.45389914     0.07400
C1493       C  0.59811962  0.65423914  0.41171713    -0.14700
C1494       C  0.60997103  0.67786733  0.37022422    -0.14700
C1495       C  0.60495633  0.70814644  0.36939116     0.07400
C1496       C  0.58924965  0.71531049  0.41126353    -0.14700
H1497       H  0.56976256  0.70171377  0.48570459     0.11400
H1498       H  0.60393992  0.63234830  0.40953976     0.11400
H1499       H  0.62291861  0.67230304  0.33854494     0.11400
H1500       H  0.58665492  0.73955074  0.41256285     0.11400
C1501       C  0.96527160  0.61139326  0.99774721    -0.14700
C1502       C  0.94469377  0.57304461  0.00030369     0.07400
C1503       C  0.96429294  0.55451397  0.00814568    -0.14700
C1504       C  0.00296602  0.57355406  0.00842230    -0.14700
C1505       C  0.52369351  0.61191402  0.00080778     0.07400
C1506       C  0.00338187  0.63013298  0.99762032    -0.14700
H1507       H  0.95155107  0.62717167  0.99481732     0.11400
H1508       H  0.95023240  0.52548649  0.01552141     0.11400
H1509       H  0.51604544  0.55784503  0.51658442     0.11400
H1510       H  0.51617455  0.65929864  0.99721711     0.11400
C1511       C  0.65795941  0.55290998  0.09771758    -0.14700
C1512       C  0.67269603  0.56110040  0.04808853     0.07400
C1513       C  0.71135886  0.57782378  0.04305863    -0.14700
C1514       C  0.73410940  0.58972823  0.08544242    -0.14700
C1515       C  0.71907149  0.58492018  0.13397300     0.07400
C1516       C  0.68086970  0.56574334  0.14010001    -0.14700
H1517       H  0.62844963  0.53830302  0.10346208     0.11400
H1518       H  0.72460500  0.58160304  0.00676710     0.11400
H1519       H  0.76365472  0.60301305  0.08032760     0.11400
H1520       H  0.66881868  0.56045595  0.17758523     0.11400
C1521       C  0.69203647  0.60060968  0.44342231    -0.14700
C1522       C  0.66775972  0.56288721  0.45127486     0.07400
C1523       C  0.66498987  0.53857650  0.41199288    -0.14700
C1524       C  0.68917665  0.55091081  0.37071638    -0.14700
C1525       C  0.71562240  0.58808952  0.36601669     0.07400
C1526       C  0.71589990  0.61293695  0.40196813    -0.14700
H1527       H  0.69409179  0.62048125  0.47128804     0.11400
H1528       H  0.64468050  0.50978369  0.41278316     0.11400
H1529       H  0.68716839  0.53127696  0.34248054     0.11400
H1530       H  0.73536267  0.64198795  0.39896585     0.11400
C1531       C  0.62912846  0.59595341  0.54210052    -0.14700
C1532       C  0.62261839  0.56914205  0.00518271     0.07400
C1533       C  0.59601173  0.56263191  0.96806378    -0.14700
C1534       C  0.57680093  0.58189449  0.96845773    -0.14700
C1535       C  0.58430515  0.60956841  0.00483817     0.07400
C1536       C  0.60944147  0.61412162  0.54332907    -0.14700
H1537       H  0.65050536  0.60475820  0.57000885     0.11400
H1538       H  0.59048065  0.54287453  0.93815548     0.11400
H1539       H  0.55689434  0.57615380  0.93889804     0.11400
H1540       H  0.61569410  0.63266295  0.57478240     0.11400
C1541       C  0.62607680  0.87058305  0.40832518    -0.14700
C1542       C  0.60260104  0.85292693  0.36773466     0.07400
C1543       C  0.56586896  0.84417150  0.37138457    -0.14700
C1544       C  0.55324820  0.85431454  0.41417400    -0.14700
C1545       C  0.57712063  0.87409467  0.45485971     0.07400
C1546       C  0.61328783  0.87972926  0.45144762    -0.14700
H1547       H  0.65400715  0.87561557  0.40791826     0.11400
H1548       H  0.54673194  0.82920453  0.34118506     0.11400
H1549       H  0.52437873  0.84511116  0.41451809     0.11400
H1550       H  0.63147727  0.88862257  0.48344530     0.11400
C1551       C  0.57403950  0.83837153  0.05038056    -0.14700
C1552       C  0.57780616  0.87359893  0.05024856     0.07400
C1553       C  0.59106714  0.89506661  0.09476127    -0.14700
C1554       C  0.60248412  0.88291480  0.13592941    -0.14700
C1555       C  0.59938945  0.84833751  0.13485286     0.07400
C1556       C  0.58454959  0.82592646  0.09213604    -0.14700
H1557       H  0.56237441  0.82015929  0.01819053     0.11400
H1558       H  0.59255126  0.92127921  0.09833651     0.11400
H1559       H  0.61319181  0.90033778  0.16907261     0.11400
H1560       H  0.58167727  0.79898415  0.09067335     0.11400
C1561       C  0.56534870  0.94897690  0.01081157    -0.14700
C1562       C  0.58413028  0.92917555  0.00480216     0.07400
C1563       C  0.62293133  0.95032324  0.50437207    -0.14700
C1564       C  0.64157985  0.98822959  0.50381373    -0.14700
C1565       C  0.62279631  0.50781770  0.00440871     0.07400
C1566       C  0.58425867  0.98747832  0.01044178    -0.14700
H1567       H  0.53612788  0.93538400  0.01760510     0.11400
H1568       H  0.63996984  0.93840337  0.50718411     0.11400
H1569       H  0.67136756  0.00259148  0.50244546     0.11400
H1570       H  0.56835524  0.00082104  0.01597612     0.11400
C1571       C  0.90305495  0.76001287  0.44480846    -0.14700
C1572       C  0.89059178  0.78509035  0.45249022     0.07400
C1573       C  0.86992164  0.78849983  0.41301129    -0.14700
C1574       C  0.85809279  0.76446998  0.37148670    -0.14700
C1575       C  0.86804867  0.73752388  0.36664473     0.07400
C1576       C  0.89172533  0.73644495  0.40293098    -0.14700
H1577       H  0.92011038  0.75731646  0.47292794     0.11400
H1578       H  0.86213879  0.80923608  0.41383022     0.11400
H1579       H  0.84112440  0.76702829  0.34308076     0.11400
H1580       H  0.90063138  0.71652027  0.39989162     0.11400
C1581       C  0.88014602  0.77226398  0.14111662    -0.14700
C1582       C  0.85881919  0.73429832  0.13469664     0.07400
C1583       C  0.84694418  0.71974158  0.08625222    -0.14700
C1584       C  0.85882103  0.74251680  0.04407048    -0.14700
C1585       C  0.88309433  0.78069346  0.04929042     0.07400
C1586       C  0.89091509  0.79527767  0.09903199    -0.14700
H1587       H  0.88831271  0.78405635  0.17859780     0.11400
H1588       H  0.82899456  0.69050954  0.08096066     0.11400
H1589       H  0.84848125  0.72976551  0.00771482     0.11400
H1590       H  0.90751893  0.82458265  0.10498536     0.11400
C1591       C  0.00053329  0.84141656  0.04323669    -0.14700
C1592       C  0.52164609  0.86784598  0.00636061     0.07400
C1593       C  0.50178453  0.87545890  0.47015364    -0.14700
C1594       C  0.96314594  0.85627324  0.46946624    -0.14700
C1595       C  0.94246295  0.82948581  0.00605358     0.07400
C1596       C  0.96239285  0.82188236  0.04177916    -0.14700
H1597       H  0.51269917  0.83407850  0.07329746     0.11400
H1598       H  0.51639484  0.89549824  0.44093992     0.11400
H1599       H  0.94923900  0.86218884  0.43993260     0.11400
H1600       H  0.94920197  0.79976110  0.06838954     0.11400
C1601       C  0.90089849  0.86955438  0.01188428    -0.14700
C1602       C  0.88153817  0.83101169  0.00599456     0.07400
C1603       C  0.84286915  0.81316651  0.50486690    -0.14700
C1604       C  0.82461114  0.83277209  0.00404334    -0.14700
C1605       C  0.84394683  0.87140367  0.00393288     0.07400
C1606       C  0.88240185  0.88945970  0.01059671    -0.14700
H1607       H  0.93024303  0.88474935  0.01785412     0.11400
H1608       H  0.82659007  0.78357635  0.50264959     0.07200
H1609       H  0.79488877  0.81755177  0.00132684     0.11400
H1610       H  0.89847493  0.91881521  0.01535023     0.11400
C1611       C  0.89967986  0.80694524  0.50327806    -0.03900
C1612       C  0.56464071  0.88627432  0.50392057    -0.03900
C1613       C  0.64608448  0.55012587  0.50204362    -0.03900
C1614       C  0.56672870  0.63468105  0.50185011    -0.03900
C1615       C  0.90223934  0.55449322  0.49782644    -0.03900
C1616       C  0.82119466  0.89085159  0.49954857    -0.03900
Fe1617     Fe  0.59858884  0.77617652  0.75200625     1.65800
Fe1618     Fe  0.68080550  0.77878108  0.75078953     1.73200
Fe1619     Fe  0.67803191  0.85786832  0.75000875     1.54400
O1620       O  0.64049556  0.85968713  0.70169243    -0.83100
O1621       O  0.71290895  0.80909820  0.81071823    -0.81400
O1622       O  0.59539650  0.80227015  0.68872328    -0.85600
O1623       O  0.59347418  0.81252467  0.79984528    -0.80400
O1624       O  0.70815981  0.85985000  0.68710408    -0.82200
O1625       O  0.64567992  0.73924447  0.80181049    -0.85000
C1626       C  0.61603821  0.84117758  0.82395019     0.95800
C1627       C  0.61237354  0.83600211  0.67768982     1.03200
O1628       O  0.65256840  0.80428386  0.75116282    -1.13900
O1629       O  0.65202516  0.74724066  0.68994510    -0.76400
O1630       O  0.59493813  0.73544282  0.70446402    -0.79900
O1631       O  0.64991625  0.85960766  0.81270219    -0.80500
C1632       C  0.61805321  0.73066323  0.67959519     0.94700
O1633       O  0.59819764  0.74801448  0.81493992    -0.78500
O1634       O  0.71942323  0.81423017  0.69970679    -0.83700
C1635       C  0.72725795  0.84289747  0.82136285     0.97300
C1636       C  0.72405708  0.84202210  0.67556826     1.03300
O1637       O  0.71895543  0.86404299  0.79865709    -0.79300
C1638       C  0.61694005  0.73313391  0.82601390     1.01600
Fe1639     Fe  0.86943074  0.66549972  0.74959353     1.65800
Fe1640     Fe  0.79029013  0.58410671  0.74956044     1.73200
Fe1641     Fe  0.78786910  0.66273720  0.75208651     1.54400
O1642       O  0.82576886  0.70510615  0.79952555    -0.83100
O1643       O  0.76216041  0.58220880  0.68604902    -0.81400
O1644       O  0.87109993  0.69366332  0.81392649    -0.85600
O1645       O  0.87154786  0.70660089  0.70318288    -0.80400
O1646       O  0.76028946  0.63555061  0.81565590    -0.82200
O1647       O  0.82913547  0.58167790  0.70172094    -0.85000
C1648       C  0.84739213  0.70955253  0.67815079     0.95800
C1649       C  0.85414478  0.71063780  0.82417581     1.03200
O1650       O  0.81589254  0.63748072  0.75065381    -1.13900
O1651       O  0.81732011  0.58304546  0.81257242    -0.76400
O1652       O  0.87437808  0.62792766  0.79601679    -0.79900
O1653       O  0.81340932  0.69126973  0.68819885    -0.80500
C1654       C  0.85153228  0.59993548  0.82140953     0.94700
O1655       O  0.87122529  0.63953371  0.68473456    -0.78500
O1656       O  0.74766613  0.57887039  0.79738853    -0.83700
C1657       C  0.74366754  0.59766286  0.67776319     0.97300
C1658       C  0.74267277  0.60143908  0.82387678     1.03300
O1659       O  0.74627479  0.62395048  0.70489574    -0.79300
C1660       C  0.85572988  0.60557456  0.67526390     1.01600
C1661       C  0.73303417  0.84378748  0.58306465    -0.14700
C1662       C  0.74825869  0.85332118  0.63142624     0.07400
C1663       C  0.78642592  0.87224872  0.63727549    -0.14700
C1664       C  0.80926189  0.88328901  0.59477101    -0.14700
C1665       C  0.79441765  0.87599143  0.54535546     0.07400
C1666       C  0.75575840  0.85433373  0.54049546    -0.14700
H1667       H  0.70346761  0.82781105  0.57830373     0.11400
H1668       H  0.79850772  0.87893270  0.67465923     0.11400
H1669       H  0.83876760  0.89863284  0.60024050     0.11400
H1670       H  0.74254121  0.84501652  0.50424635     0.11400
C1671       C  0.80353987  0.85935878  0.91057481    -0.14700
C1672       C  0.80026934  0.88142943  0.94851304     0.07400
C1673       C  0.77661179  0.89530370  0.93864275    -0.14700
C1674       C  0.75382080  0.88378953  0.89628995    -0.14700
C1675       C  0.75419492  0.85825363  0.86254871     0.07400
C1676       C  0.77988238  0.84693083  0.86916196    -0.14700
H1677       H  0.82363241  0.85071497  0.91264074     0.11400
H1678       H  0.77423677  0.91352423  0.96542155     0.11400
H1679       H  0.73462419  0.89347212  0.89125869     0.11400
H1680       H  0.78166163  0.82843648  0.84219983     0.11400
C1681       C  0.85190308  0.55184338  0.94130990    -0.14700
C1682       C  0.88951773  0.56359598  0.94765096     0.07400
C1683       C  0.91365082  0.58351381  0.90746540    -0.14700
C1684       C  0.90153966  0.59545526  0.86655224    -0.14700
C1685       C  0.86464249  0.58626787  0.86316964     0.07400
C1686       C  0.83975739  0.56329364  0.90014716    -0.14700
H1687       H  0.83207114  0.53533621  0.96996800     0.11400
H1688       H  0.94212233  0.59053703  0.90727770     0.11400
H1689       H  0.92106094  0.61181561  0.83748084     0.11400
H1690       H  0.81088597  0.55499052  0.89819346     0.11400
C1691       C  0.87916096  0.59547004  0.54045292    -0.14700
C1692       C  0.89191965  0.57035179  0.54461870     0.07400
C1693       C  0.89661968  0.56073332  0.59401320    -0.14700
C1694       C  0.88392694  0.57117918  0.63651132    -0.14700
C1695       C  0.86884701  0.59386743  0.63111013     0.07400
C1696       C  0.86782054  0.60696782  0.58310112    -0.14700
H1697       H  0.87812345  0.60682357  0.50451189     0.11400
H1698       H  0.90828475  0.54326965  0.59931464     0.11400
H1699       H  0.88622277  0.56188239  0.67359912     0.11400
H1700       H  0.85761014  0.62574126  0.57849171     0.11400
C1701       C  0.83411601  0.95376255  0.53362254    -0.14700
C1702       C  0.84422510  0.93341752  0.50147644     0.07400
C1703       C  0.87181118  0.95330729  0.96512320    -0.14700
C1704       C  0.89027221  0.99180143  0.96397053    -0.14700
C1705       C  0.88219485  0.51194506  0.49952409     0.07400
C1706       C  0.85224963  0.99170015  0.53230713    -0.14700
H1707       H  0.81056571  0.94080897  0.55846880     0.11400
H1708       H  0.87868991  0.93890282  0.93705376     0.11400
H1709       H  0.91110497  0.50600689  0.93532228     0.11400
H1710       H  0.84103733  0.00465192  0.55599690     0.11400
C1711       C  0.55639857  0.65296670  0.59211111    -0.14700
C1712       C  0.57913835  0.66018017  0.54908591     0.07400
C1713       C  0.61551731  0.69027994  0.55148150    -0.14700
C1714       C  0.62825045  0.71249373  0.59430648    -0.14700
C1715       C  0.60499821  0.70568571  0.63589570     0.07400
C1716       C  0.56898550  0.67587793  0.63447578    -0.14700
H1717       H  0.52896322  0.62941111  0.59382088     0.11400
H1718       H  0.63445543  0.69607045  0.52032303     0.11400
H1719       H  0.65619078  0.73542309  0.59454399     0.11400
H1720       H  0.55072889  0.66992997  0.66654604     0.11400
C1721       C  0.57824985  0.69238708  0.95297796    -0.14700
C1722       C  0.58050110  0.65995700  0.95389834     0.07400
C1723       C  0.59811367  0.65423541  0.91171250    -0.14700
C1724       C  0.60996661  0.67786460  0.87022062    -0.14700
C1725       C  0.60495873  0.70814796  0.86939216     0.07400
C1726       C  0.58925696  0.71531489  0.91126762    -0.14700
H1727       H  0.56976837  0.70171665  0.98570825     0.11400
H1728       H  0.60392759  0.63234046  0.90953067     0.11400
H1729       H  0.62290950  0.67229746  0.83853808     0.11400
H1730       H  0.58666655  0.73955756  0.91256957     0.11400
C1731       C  0.96527205  0.61139270  0.49775409    -0.14700
C1732       C  0.94469421  0.57304394  0.50030567     0.07400
C1733       C  0.96429354  0.55451283  0.50814275    -0.14700
C1734       C  0.00296691  0.57355318  0.50841938    -0.14700
C1735       C  0.52369441  0.61191390  0.50081081     0.07400
C1736       C  0.00338233  0.63013273  0.49762960    -0.14700
H1737       H  0.95155172  0.62717142  0.49482751     0.11400
H1738       H  0.95023313  0.52548489  0.51551410     0.11400
H1739       H  0.51604450  0.55784656  0.01659194     0.11400
H1740       H  0.51617422  0.65929803  0.49723414     0.11400
C1741       C  0.65795946  0.55290896  0.59771385    -0.14700
C1742       C  0.67269738  0.56110067  0.54808563     0.07400
C1743       C  0.71136039  0.57782491  0.54305742    -0.14700
C1744       C  0.73410974  0.58972902  0.58544235    -0.14700
C1745       C  0.71907035  0.58491945  0.63397217     0.07400
C1746       C  0.68086845  0.56574152  0.64009738    -0.14700
H1747       H  0.62844941  0.53830152  0.60345692     0.11400
H1748       H  0.72460750  0.58160533  0.50676635     0.11400
H1749       H  0.76365534  0.60301468  0.58032907     0.11400
H1750       H  0.66881646  0.56045291  0.67758197     0.11400
C1751       C  0.69203296  0.60060705  0.94342376    -0.14700
C1752       C  0.66775686  0.56288468  0.95127783     0.07400
C1753       C  0.66498772  0.53857320  0.91199733    -0.14700
C1754       C  0.68917452  0.55090703  0.87072077    -0.14700
C1755       C  0.71561927  0.58808593  0.86601929     0.07400
C1756       C  0.71589619  0.61293381  0.90196940    -0.14700
H1757       H  0.69408794  0.62047906  0.97128848     0.11400
H1758       H  0.64467907  0.50978036  0.91278878     0.11400
H1759       H  0.68716684  0.53127272  0.84248620     0.11400
H1760       H  0.73535830  0.64198492  0.89896584     0.11400
C1761       C  0.62912481  0.59595093  0.04210285    -0.14700
C1762       C  0.62262125  0.56914419  0.50518028     0.07400
C1763       C  0.59601452  0.56263449  0.46806185    -0.14700
C1764       C  0.57680336  0.58189662  0.46845712    -0.14700
C1765       C  0.58430722  0.60956984  0.50483864     0.07400
C1766       C  0.60943774  0.61411898  0.04333043    -0.14700
H1767       H  0.65050098  0.60475563  0.07001199     0.11400
H1768       H  0.59048352  0.54287753  0.43815276     0.11400
H1769       H  0.55689723  0.57615673  0.43889720     0.11400
H1770       H  0.61568899  0.63265900  0.07478485     0.11400
C1771       C  0.62607892  0.87058610  0.90832396    -0.14700
C1772       C  0.60260239  0.85292773  0.86773495     0.07400
C1773       C  0.56586982  0.84417037  0.87138627    -0.14700
C1774       C  0.55324928  0.85431379  0.91417544    -0.14700
C1775       C  0.57712238  0.87409620  0.95485949     0.07400
C1776       C  0.61329023  0.87973265  0.95144636    -0.14700
H1777       H  0.65400977  0.87562008  0.90791622     0.11400
H1778       H  0.54673220  0.82920153  0.84118812     0.11400
H1779       H  0.52437940  0.84510870  0.91452089     0.11400
H1780       H  0.63148014  0.88862690  0.98344304     0.11400
C1781       C  0.57403679  0.83837009  0.55038201    -0.14700
C1782       C  0.57780462  0.87359795  0.55024894     0.07400
C1783       C  0.59106739  0.89506647  0.59476073    -0.14700
C1784       C  0.60248481  0.88291482  0.63592876    -0.14700
C1785       C  0.59938928  0.84833714  0.63485321     0.07400
C1786       C  0.58454769  0.82592534  0.59213721    -0.14700
H1787       H  0.56237056  0.82015729  0.51819251     0.11400
H1788       H  0.59255260  0.92127956  0.59833524     0.11400
H1789       H  0.61319379  0.90033857  0.66907132     0.11400
H1790       H  0.58167466  0.79898281  0.59067498     0.11400
C1791       C  0.56534869  0.94897675  0.51081010    -0.14700
C1792       C  0.58412960  0.92917473  0.50480083     0.07400
C1793       C  0.62293200  0.95032442  0.00437586    -0.14700
C1794       C  0.64157998  0.98823075  0.00381901    -0.14700
C1795       C  0.62279822  0.50781907  0.50440360     0.07400
C1796       C  0.58425919  0.98747823  0.51043915    -0.14700
H1797       H  0.53612801  0.93538430  0.51760455     0.11400
H1798       H  0.63997055  0.93840520  0.00718933     0.11400
H1799       H  0.67136764  0.00259290  0.00245210     0.11400
H1800       H  0.56835625  0.00082134  0.51597413     0.11400
C1801       C  0.90305667  0.76001345  0.94480532    -0.14700
C1802       C  0.89059277  0.78509020  0.95248855     0.07400
C1803       C  0.86992013  0.78849810  0.91301182    -0.14700
C1804       C  0.85808943  0.76446716  0.87148852    -0.14700
C1805       C  0.86804644  0.73752198  0.86664515     0.07400
C1806       C  0.89172573  0.73644488  0.90292862    -0.14700
H1807       H  0.92011376  0.75731809  0.97292314     0.11400
H1808       H  0.86213642  0.80923373  0.91383164     0.11400
H1809       H  0.84111896  0.76702399  0.84308464     0.11400
H1810       H  0.90063279  0.71652100  0.89988787     0.11400
C1811       C  0.88014149  0.77226303  0.64111868    -0.14700
C1812       C  0.85881598  0.73429723  0.63469821     0.07400
C1813       C  0.84694206  0.71974082  0.58625340    -0.14700
C1814       C  0.85881878  0.74251645  0.54407190    -0.14700
C1815       C  0.88309151  0.78069327  0.54929226     0.07400
C1816       C  0.89091086  0.79527709  0.59903412    -0.14700
H1817       H  0.88830716  0.78405520  0.67860002     0.11400
H1818       H  0.82899326  0.69050867  0.58096124     0.11400
H1819       H  0.84847950  0.72976529  0.50771621     0.11400
H1820       H  0.90751386  0.82458202  0.60498795     0.11400
C1821       C  0.00053166  0.84141790  0.54323949    -0.14700
C1822       C  0.52164448  0.86784567  0.50636146     0.07400
C1823       C  0.50178634  0.87545956  0.97015299    -0.14700
C1824       C  0.96314783  0.85627365  0.96946493    -0.14700
C1825       C  0.94246102  0.82948632  0.50605604     0.07400
C1826       C  0.96239102  0.82188425  0.54178322    -0.14700
H1827       H  0.51269778  0.83408077  0.57330121     0.11400
H1828       H  0.51639680  0.89549955  0.94093990     0.11400
H1829       H  0.94924090  0.86218991  0.93993197     0.11400
H1830       H  0.94920017  0.79976442  0.56839544     0.11400
C1831       C  0.90089648  0.86955460  0.51188470    -0.14700
C1832       C  0.88153615  0.83101188  0.50599480     0.07400
C1833       C  0.84287108  0.81316613  0.00486864    -0.14700
C1834       C  0.82460933  0.83277265  0.50404103    -0.14700
C1835       C  0.84394511  0.87140430  0.50393142     0.07400
C1836       C  0.88239999  0.88946010  0.51059636    -0.14700
H1837       H  0.93024090  0.88474943  0.51785541     0.11400
H1838       H  0.82659200  0.78357597  0.00265192     0.07200
H1839       H  0.79488704  0.81755244  0.50132355     0.11400
H1840       H  0.89847303  0.91881555  0.51535047     0.11400
loop_ 
_geom_bond_atom_site_label_1 
_geom_bond_atom_site_label_2 
_geom_bond_distance 
_geom_bond_site_symmetry_2 
_ccdc_geom_bond_type 
C1          C205   1.560       .  S
C1          C215   1.558       .  S
C1          C222   1.550       .  S
C1          C422   1.560   1_554  S
C2          C172   1.554       .  S
C2          C182   1.569       .  S
C2          C212   1.570       .  S
C2          C395   1.574   1_554  S
C3          C132   1.562       .  S
C3          C152   1.557       .  S
C3          C185   1.548       .  S
C3          C372   1.558   1_554  S
C4          C102   1.554       .  S
C4          C125   1.566       .  S
C4          C155   1.573       .  S
C4          C342   1.574   1_554  S
C5           C82   1.562   1_556  S
C5           C95   1.556       .  S
C5          C122   1.550   1_556  S
C5          C302   1.557       .  S
C6           C55   1.554   1_556  S
C6           C92   1.556   1_556  S
C6          C225   1.550   1_556  S
C6          C292   1.553       .  S
Fe7          O23   2.050       .  S
Fe7          O13   2.074       .  S
Fe7          O20   2.066       .  S
Fe7          O12   2.055       .  S
Fe7          O18   1.963       .  S
Fe8          O11   2.057       .  S
Fe8          O15   2.079       .  S
Fe8          O19   2.049       .  S
Fe8          O24   2.065       .  S
Fe8          O18   1.966       .  S
Fe9          O27   2.065       .  S
Fe9          O14   2.062       .  S
Fe9          O21   2.053       .  S
Fe9          O10   2.071       .  S
Fe9          O18   1.958       .  S
O10          C17   1.269       .  A
O11          C25   1.269       .  A
O12          C17   1.268       .  A
O13          C16   1.269       .  A
O14          C26   1.269       .  A
O15          C28   1.272       .  A
C16          O21   1.268       .  A
C16         C162   1.474       .  S
C17         C175   1.470       .  S
O19          C22   1.266       .  A
O20          C22   1.268       .  A
C22         C105   1.468       .  S
O23          C28   1.269       .  A
O24          C26   1.268       .  A
C25          O27   1.268       .  A
C25          C65   1.469       .  S
C26          C52   1.460       .  S
C28         C115   1.471       .  S
Fe29         O45   2.050       .  S
Fe29         O35   2.101       .  S
Fe29         O42   2.108       .  S
Fe29         O34   2.049       .  S
Fe29         O40   1.947       .  S
Fe30         O33   2.040       .  S
Fe30         O37   2.103       .  S
Fe30         O41   2.038       .  S
Fe30         O46   2.108       .  S
Fe30         O40   1.950       .  S
Fe31         O49   2.101       .  S
Fe31         O36   2.039       .  S
Fe31         O43   2.042       .  S
Fe31         O32   2.106       .  S
Fe31         O40   1.949       .  S
O32          C39   1.278       .  A
O33          C47   1.264       .  A
O34          C39   1.268       .  A
O35          C38   1.275       .  A
O36          C48   1.266       .  A
O37          C50   1.275       .  A
C38          O43   1.264       .  A
C38         C202   1.467       .  S
C39         C195   1.487       .  S
O41          C44   1.266       .  A
O42          C44   1.279       .  A
C44          C75   1.483       .  S
O45          C50   1.265       .  A
O46          C48   1.278       .  A
C47          O49   1.275       .  A
C47         C135   1.465       .  S
C48         C145   1.485       .  S
C50          C85   1.473       .  S
C51          C52   1.397       .  A
C51          C56   1.395       .  A
C51          H57   1.084       .  S
C52          C53   1.397       .  A
C53          C54   1.396       .  A
C53          H58   1.083       .  S
C54          C55   1.416       .  A
C54          H59   1.083       .  S
C55          C56   1.415       .  A
C56          H60   1.079       .  S
C61          C62   1.417       .  A
C61          C66   1.395       .  A
C61          H67   1.079       .  S
C62         C236   1.553       .  S
C62          C63   1.414       .  A
C63          C64   1.395       .  A
C63          H68   1.083       .  S
C64          C65   1.401       .  A
C64          H69   1.083       .  S
C65          C66   1.398       .  A
C66          H70   1.083       .  S
C71          C72   1.411       .  A
C71          C76   1.396       .  A
C71          H77   1.083       .  S
C72         C235   1.557       .  S
C72          C73   1.418       .  A
C73          C74   1.401       .  A
C73          H78   1.080       .  S
C74          C75   1.401       .  A
C74          H79   1.083       .  S
C75          C76   1.405       .  A
C76          H80   1.083       .  S
C81          C82   1.416       .  A
C81          C86   1.398       .  A
C81          H87   1.080       .  S
C82          C83   1.416       .  A
C83          C84   1.402       .  A
C83          H88   1.083       .  S
C84          C85   1.400       .  A
C84          H89   1.083       .  S
C85          C86   1.400       .  A
C86          H90   1.084       .  S
C91          C92   1.412       .  A
C91          C96   1.387       .  A
C91          H97   1.079       .  S
C92         C323   1.413   1_554  A
C93          C94   1.407       .  A
C93         C322   1.413       .  A
C93          H98   1.083       .  S
C94         C785   1.413       .  A
C94         H559   1.083       .  S
C95         C784   1.413   1_545  A
C95         C556   1.409   1_546  A
C96         C555   1.409   1_554  A
C96         H100   1.079       .  S
H99         C554   1.083   1_545  S
C101        C102   1.415       .  A
C101        C106   1.395       .  A
C101        H107   1.081       .  S
C102        C103   1.416       .  A
C103        C104   1.391       .  A
C103        H108   1.083       .  S
C104        C105   1.399       .  A
C104        H109   1.083       .  S
C105        C106   1.401       .  A
C106        H110   1.083       .  S
C111        C112   1.421       .  A
C111        C116   1.390       .  A
C111        H117   1.079       .  S
C112        C234   1.574       .  S
C112        C113   1.420       .  A
C113        C114   1.400       .  A
C113        H118   1.071       .  S
C114        C115   1.399       .  A
C114        H119   1.083       .  S
C115        C116   1.393       .  A
C116        H120   1.084       .  S
C121        C122   1.403   1_556  A
C121        C126   1.386       .  A
C121        H127   1.083       .  S
C122        C123   1.412       .  A
C123        C124   1.406       .  A
C123        H128   1.079       .  S
C124       C1045   1.417       .  A
C124       H1279   1.078       .  S
C125       C1044   1.417       .  A
C125       C1046   1.413   1_554  A
C126       C1045   1.413   1_556  A
C126       H1050   1.068       .  S
H129       C1274   1.078       .  S
H130       C1046   1.068       .  S
C131        C132   1.417       .  A
C131        C136   1.399       .  A
C131        H137   1.083       .  S
C132        C133   1.416       .  A
C133        C134   1.395       .  A
C133        H138   1.079       .  S
C134        C135   1.398       .  A
C134        H139   1.084       .  S
C135        C136   1.398       .  A
C136        H140   1.083       .  S
C141        C142   1.411       .  A
C141        C146   1.397       .  A
C141        H147   1.083       .  S
C142        C233   1.558       .  S
C142        C143   1.418       .  A
C143        C144   1.400       .  A
C143        H148   1.079       .  S
C144        C145   1.401       .  A
C144        H149   1.083       .  S
C145        C146   1.406       .  A
C146        H150   1.083       .  S
C151        C156   1.385       .  A
C151        C382   1.409       .  A
C151        H157   1.077       .  S
C152        C153   1.412   1_554  A
C152        C381   1.409       .  A
C153        C154   1.407       .  A
C153        H158   1.083       .  S
C154        C155   1.416   1_556  A
C154        H159   1.083       .  S
C155        C386   1.414       .  A
C156        C385   1.414       .  A
C156        H160   1.077       .  S
C161        C162   1.394       .  A
C161        C166   1.391       .  A
C161        H167   1.084       .  S
C162        C163   1.399       .  A
C163        C164   1.400       .  A
C163        H168   1.083       .  S
C164        C165   1.421       .  A
C164        H169   1.073       .  S
C165        C232   1.574       .  S
C165        C166   1.420       .  A
C166        H170   1.076       .  S
C171        C172   1.416       .  A
C171        C176   1.394       .  A
C171        H177   1.083       .  S
C172        C173   1.415       .  A
C173        C174   1.395       .  A
C173        H178   1.081       .  S
C174        C175   1.401       .  A
C174        H179   1.083       .  S
C175        C176   1.400       .  A
C176        H180   1.083       .  S
C181        C182   1.419       .  A
C181        C186   1.406       .  A
C181        H187   1.078       .  S
C182        C413   1.413       .  A
C183        C184   1.384       .  A
C183        C412   1.413       .  A
C183        H188   1.067       .  S
C184        C875   1.403       .  A
C184        H189   1.084       .  S
C185        C874   1.403   1_545  A
C185        C646   1.411   1_545  A
C186        C645   1.411       .  A
C186        H190   1.079       .  S
C191        C192   1.412       .  A
C191        C196   1.399       .  A
C191        H197   1.083       .  S
C192        C231   1.560       .  S
C192        C193   1.418       .  A
C193        C194   1.402       .  A
C193        H198   1.079       .  S
C194        C195   1.402       .  A
C194        H199   1.083       .  S
C195        C196   1.406       .  A
C196        H200   1.083       .  S
C201        C202   1.399       .  A
C201        C206   1.400       .  A
C201        H207   1.083       .  S
C202        C203   1.398       .  A
C203        C204   1.396       .  A
C203        H208   1.084       .  S
C204        C205   1.416       .  A
C204        H209   1.079       .  S
C205        C206   1.417       .  A
C206        H210   1.083       .  S
C211        C216   1.387       .  A
C211       C1132   1.413       .  A
C211       H1137   1.077       .  S
C212       C1131   1.413       .  A
C212        C443   1.417   1_554  A
C213        C442   1.417       .  A
C213       C1134   1.405   1_455  A
C213        H218   1.083       .  S
C214       C1133   1.405       .  A
C214        C445   1.411       .  A
C214        H219   1.083       .  S
C215        C216   1.410       .  A
C215        C444   1.411   1_554  A
C216        H220   1.078       .  S
H217       C1131   1.077       .  S
C221        C222   1.415       .  A
C221        C226   1.406       .  A
C221        H227   1.079       .  S
C222        C453   1.408       .  A
C223        C452   1.408       .  A
C223        C454   1.386       .  A
C223        H228   1.083       .  S
C224        C225   1.411       .  A
C224        C453   1.386       .  A
C224        H229   1.083       .  S
C225        C226   1.411       .  A
C226        H230   1.080       .  S
C231        C435   1.560       .  S
C231        C445   1.558       .  S
C231        C452   1.550       .  S
C232        C402   1.554       .  S
C232        C412   1.569       .  S
C232        C442   1.570       .  S
C233        C362   1.562       .  S
C233        C382   1.557       .  S
C233        C415   1.548       .  S
C234        C332   1.554       .  S
C234        C355   1.566       .  S
C234        C385   1.573       .  S
C235        C312   1.562       .  S
C235        C325   1.556       .  S
C235        C352   1.550       .  S
C236        C285   1.554       .  S
C236        C322   1.556       .  S
C236        C455   1.550       .  S
Fe237       O253   2.050       .  S
Fe237       O243   2.074       .  S
Fe237       O250   2.066       .  S
Fe237       O242   2.055       .  S
Fe237       O248   1.963       .  S
Fe238       O241   2.057       .  S
Fe238       O245   2.079       .  S
Fe238       O249   2.049       .  S
Fe238       O254   2.065       .  S
Fe238       O248   1.966       .  S
Fe239       O257   2.065       .  S
Fe239       O244   2.062       .  S
Fe239       O251   2.053       .  S
Fe239       O240   2.071       .  S
Fe239       O248   1.958       .  S
O240        C247   1.269       .  A
O241        C255   1.269       .  A
O242        C247   1.268       .  A
O243        C246   1.269       .  A
O244        C256   1.269       .  A
O245        C258   1.272       .  A
C246        O251   1.268       .  A
C246        C392   1.474       .  S
C247        C405   1.470       .  S
O249        C252   1.266       .  A
O250        C252   1.268       .  A
C252        C335   1.468       .  S
O253        C258   1.269       .  A
O254        C256   1.268       .  A
C255        O257   1.268       .  A
C255        C295   1.469       .  S
C256        C282   1.460       .  S
C258        C345   1.471       .  S
Fe259       O275   2.050       .  S
Fe259       O265   2.101       .  S
Fe259       O272   2.108       .  S
Fe259       O264   2.049       .  S
Fe259       O270   1.947       .  S
Fe260       O263   2.040       .  S
Fe260       O267   2.103       .  S
Fe260       O271   2.038       .  S
Fe260       O276   2.107       .  S
Fe260       O270   1.950       .  S
Fe261       O279   2.101       .  S
Fe261       O266   2.039       .  S
Fe261       O273   2.042       .  S
Fe261       O262   2.106       .  S
Fe261       O270   1.949       .  S
O262        C269   1.278       .  A
O263        C277   1.264       .  A
O264        C269   1.268       .  A
O265        C268   1.275       .  A
O266        C278   1.266       .  A
O267        C280   1.275       .  A
C268        O273   1.264       .  A
C268        C432   1.468       .  S
C269        C425   1.487       .  S
O271        C274   1.266       .  A
O272        C274   1.279       .  A
C274        C305   1.483       .  S
O275        C280   1.265       .  A
O276        C278   1.278       .  A
C277        O279   1.275       .  A
C277        C365   1.465       .  S
C278        C375   1.485       .  S
C280        C315   1.473       .  S
C281        C282   1.397       .  A
C281        C286   1.395       .  A
C281        H287   1.084       .  S
C282        C283   1.397       .  A
C283        C284   1.396       .  A
C283        H288   1.083       .  S
C284        C285   1.416       .  A
C284        H289   1.083       .  S
C285        C286   1.415       .  A
C286        H290   1.079       .  S
C291        C292   1.417       .  A
C291        C296   1.395       .  A
C291        H297   1.079       .  S
C292        C293   1.414       .  A
C293        C294   1.395       .  A
C293        H298   1.083       .  S
C294        C295   1.401       .  A
C294        H299   1.083       .  S
C295        C296   1.398       .  A
C296        H300   1.083       .  S
C301        C302   1.411       .  A
C301        C306   1.396       .  A
C301        H307   1.083       .  S
C302        C303   1.418       .  A
C303        C304   1.401       .  A
C303        H308   1.080       .  S
C304        C305   1.401       .  A
C304        H309   1.083       .  S
C305        C306   1.405       .  A
C306        H310   1.083       .  S
C311        C312   1.416       .  A
C311        C316   1.398       .  A
C311        H317   1.080       .  S
C312        C313   1.416       .  A
C313        C314   1.402       .  A
C313        H318   1.083       .  S
C314        C315   1.400       .  A
C314        H319   1.083       .  S
C315        C316   1.400       .  A
C316        H320   1.084       .  S
C321        C322   1.412       .  A
C321        C326   1.387       .  A
C321        H327   1.079       .  S
C323        C324   1.407       .  A
C323        H328   1.083       .  S
C324        C555   1.413       .  A
C324        H789   1.083       .  S
C325        C554   1.413   1_545  A
C325        C786   1.409   1_545  A
C326        C785   1.409       .  A
C326        H330   1.079       .  S
H329        C784   1.083   1_545  S
C331        C332   1.415       .  A
C331        C336   1.395       .  A
C331        H337   1.081       .  S
C332        C333   1.416       .  A
C333        C334   1.391       .  A
C333        H338   1.083       .  S
C334        C335   1.399       .  A
C334        H339   1.083       .  S
C335        C336   1.401       .  A
C336        H340   1.083       .  S
C341        C342   1.421       .  A
C341        C346   1.390       .  A
C341        H347   1.079       .  S
C342        C343   1.420       .  A
C343        C344   1.400       .  A
C343        H348   1.071       .  S
C344        C345   1.399       .  A
C344        H349   1.083       .  S
C345        C346   1.393       .  A
C346        H350   1.084       .  S
C351        C352   1.403       .  A
C351        C356   1.386       .  A
C351        H357   1.083       .  S
C352        C353   1.412       .  A
C353        C354   1.406       .  A
C353        H358   1.079       .  S
C354       C1275   1.417       .  A
C354       H1049   1.078       .  S
C355       C1274   1.417       .  A
C355       C1276   1.413       .  A
C356       C1275   1.413       .  A
C356       H1280   1.068       .  S
H359       C1044   1.078       .  S
H360       C1276   1.068       .  S
C361        C362   1.417       .  A
C361        C366   1.399       .  A
C361        H367   1.083       .  S
C362        C363   1.416       .  A
C363        C364   1.395       .  A
C363        H368   1.079       .  S
C364        C365   1.398       .  A
C364        H369   1.084       .  S
C365        C366   1.398       .  A
C366        H370   1.083       .  S
C371        C372   1.411       .  A
C371        C376   1.397       .  A
C371        H377   1.083       .  S
C372        C373   1.418       .  A
C373        C374   1.400       .  A
C373        H378   1.079       .  S
C374        C375   1.401       .  A
C374        H379   1.083       .  S
C375        C376   1.406       .  A
C376        H380   1.083       .  S
C381        C386   1.385       .  A
C381        H387   1.077       .  S
C382        C383   1.412       .  A
C383        C384   1.407       .  A
C383        H388   1.083       .  S
C384        C385   1.416       .  A
C384        H389   1.083       .  S
C386        H390   1.077       .  S
C391        C392   1.394       .  A
C391        C396   1.391       .  A
C391        H397   1.084       .  S
C392        C393   1.399       .  A
C393        C394   1.400       .  A
C393        H398   1.083       .  S
C394        C395   1.421       .  A
C394        H399   1.073       .  S
C395        C396   1.420       .  A
C396        H400   1.076       .  S
C401        C402   1.416       .  A
C401        C406   1.394       .  A
C401        H407   1.083       .  S
C402        C403   1.415       .  A
C403        C404   1.395       .  A
C403        H408   1.081       .  S
C404        C405   1.401       .  A
C404        H409   1.083       .  S
C405        C406   1.400       .  A
C406        H410   1.083       .  S
C411        C412   1.419       .  A
C411        C416   1.406       .  A
C411        H417   1.078       .  S
C413        C414   1.384       .  A
C413        H418   1.067       .  S
C414        C645   1.403       .  A
C414        H419   1.084       .  S
C415        C644   1.403   1_545  A
C415        C876   1.411   1_545  A
C416        C875   1.411       .  A
C416        H420   1.079       .  S
C421        C422   1.412       .  A
C421        C426   1.399       .  A
C421        H427   1.083       .  S
C422        C423   1.418       .  A
C423        C424   1.402       .  A
C423        H428   1.079       .  S
C424        C425   1.402       .  A
C424        H429   1.083       .  S
C425        C426   1.406       .  A
C426        H430   1.083       .  S
C431        C432   1.399       .  A
C431        C436   1.400       .  A
C431        H437   1.083       .  S
C432        C433   1.398       .  A
C433        C434   1.396       .  A
C433        H438   1.084       .  S
C434        C435   1.416       .  A
C434        H439   1.079       .  S
C435        C436   1.417       .  A
C436        H440   1.083       .  S
C441       C1362   1.413       .  A
C441        C446   1.387       .  A
C441       H1367   1.077       .  S
C442       C1361   1.413       .  A
C443       C1364   1.405   1_455  A
C443        H448   1.083       .  S
C444       C1363   1.405       .  A
C444        H449   1.083       .  S
C445        C446   1.410       .  A
C446        H450   1.078       .  S
H447       C1361   1.077       .  S
C451        C452   1.415       .  A
C451        C456   1.406       .  A
C451        H457   1.079       .  S
C453        H458   1.083       .  S
C454        C455   1.411       .  A
C454        H459   1.083       .  S
C455        C456   1.411       .  A
C456        H460   1.080       .  S
C461        C882   1.560   1_554  S
C461        C665   1.560       .  S
C461        C675   1.558       .  S
C461        C682   1.550       .  S
C462        C855   1.574   1_554  S
C462        C632   1.554       .  S
C462        C642   1.569       .  S
C462        C672   1.570       .  S
C463        C592   1.562       .  S
C463        C832   1.558   1_554  S
C463        C612   1.557       .  S
C463        C645   1.548       .  S
C464        C562   1.554       .  S
C464        C802   1.574   1_554  S
C464        C585   1.566       .  S
C464        C615   1.573       .  S
C465        C762   1.557       .  S
C465        C542   1.562   1_556  S
C465        C555   1.556       .  S
C465        C582   1.550   1_556  S
C466        C515   1.554   1_556  S
C466        C752   1.553       .  S
C466        C552   1.556   1_556  S
C466        C685   1.550   1_556  S
Fe467       O483   2.050       .  S
Fe467       O473   2.074       .  S
Fe467       O480   2.066       .  S
Fe467       O472   2.055       .  S
Fe467       O478   1.963       .  S
Fe468       O471   2.057       .  S
Fe468       O475   2.079       .  S
Fe468       O479   2.049       .  S
Fe468       O484   2.065       .  S
Fe468       O478   1.966       .  S
Fe469       O487   2.065       .  S
Fe469       O474   2.062       .  S
Fe469       O481   2.053       .  S
Fe469       O470   2.071       .  S
Fe469       O478   1.958       .  S
O470        C477   1.269       .  A
O471        C485   1.269       .  A
O472        C477   1.268       .  A
O473        C476   1.269       .  A
O474        C486   1.269       .  A
O475        C488   1.272       .  A
C476        O481   1.268       .  A
C476        C622   1.474       .  S
C477        C635   1.470       .  S
O479        C482   1.266       .  A
O480        C482   1.268       .  A
C482        C565   1.468       .  S
O483        C488   1.269       .  A
O484        C486   1.268       .  A
C485        O487   1.268       .  A
C485        C525   1.469       .  S
C486        C512   1.460       .  S
C488        C575   1.471       .  S
Fe489       O505   2.050       .  S
Fe489       O495   2.101       .  S
Fe489       O502   2.108       .  S
Fe489       O494   2.049       .  S
Fe489       O500   1.947       .  S
Fe490       O493   2.040       .  S
Fe490       O497   2.103       .  S
Fe490       O501   2.038       .  S
Fe490       O506   2.107       .  S
Fe490       O500   1.950       .  S
Fe491       O509   2.101       .  S
Fe491       O496   2.039       .  S
Fe491       O503   2.042       .  S
Fe491       O492   2.106       .  S
Fe491       O500   1.949       .  S
O492        C499   1.278       .  A
O493        C507   1.264       .  A
O494        C499   1.268       .  A
O495        C498   1.275       .  A
O496        C508   1.266       .  A
O497        C510   1.275       .  A
C498        O503   1.264       .  A
C498        C662   1.467       .  S
C499        C655   1.487       .  S
O501        C504   1.266       .  A
O502        C504   1.279       .  A
C504        C535   1.483       .  S
O505        C510   1.265       .  A
O506        C508   1.278       .  A
C507        O509   1.275       .  A
C507        C595   1.465       .  S
C508        C605   1.485       .  S
C510        C545   1.473       .  S
C511        C512   1.397       .  A
C511        C516   1.395       .  A
C511        H517   1.084       .  S
C512        C513   1.397       .  A
C513        C514   1.396       .  A
C513        H518   1.083       .  S
C514        C515   1.416       .  A
C514        H519   1.083       .  S
C515        C516   1.415       .  A
C516        H520   1.079       .  S
C521        C522   1.417       .  A
C521        C526   1.395       .  A
C521        H527   1.079       .  S
C522        C696   1.553       .  S
C522        C523   1.414       .  A
C523        C524   1.395       .  A
C523        H528   1.083       .  S
C524        C525   1.401       .  A
C524        H529   1.083       .  S
C525        C526   1.398       .  A
C526        H530   1.083       .  S
C531        C532   1.411       .  A
C531        C536   1.396       .  A
C531        H537   1.083       .  S
C532        C695   1.557       .  S
C532        C533   1.418       .  A
C533        C534   1.401       .  A
C533        H538   1.080       .  S
C534        C535   1.401       .  A
C534        H539   1.083       .  S
C535        C536   1.405       .  A
C536        H540   1.083       .  S
C541        C542   1.416       .  A
C541        C546   1.398       .  A
C541        H547   1.080       .  S
C542        C543   1.416       .  A
C543        C544   1.402       .  A
C543        H548   1.083       .  S
C544        C545   1.400       .  A
C544        H549   1.083       .  S
C545        C546   1.400       .  A
C546        H550   1.084       .  S
C551        C552   1.412       .  A
C551        C556   1.387       .  A
C551        H557   1.079       .  S
C552        C783   1.413   1_554  A
C553        C782   1.413       .  A
C553        C554   1.407       .  A
C553        H558   1.083       .  S
C556        H560   1.079   1_565  S
C561        C562   1.415       .  A
C561        C566   1.395       .  A
C561        H567   1.081       .  S
C562        C563   1.416       .  A
C563        C564   1.391       .  A
C563        H568   1.083       .  S
C564        C565   1.399       .  A
C564        H569   1.083       .  S
C565        C566   1.401       .  A
C566        H570   1.083       .  S
C571        C572   1.421       .  A
C571        C576   1.390       .  A
C571        H577   1.079       .  S
C572        C694   1.574       .  S
C572        C573   1.420       .  A
C573        C574   1.400       .  A
C573        H578   1.071       .  S
C574        C575   1.399       .  A
C574        H579   1.083       .  S
C575        C576   1.393       .  A
C576        H580   1.084       .  S
C581        C582   1.403   1_556  A
C581        C586   1.386       .  A
C581        H587   1.083       .  S
C582        C583   1.412       .  A
C583        C584   1.406       .  A
C583        H588   1.079       .  S
C584       C1505   1.417       .  A
C584       H1739   1.078       .  S
C585       C1504   1.417       .  A
C585       C1506   1.413   1_554  A
C586       C1505   1.413   1_556  A
C586       H1510   1.068       .  S
H589       C1734   1.078       .  S
H590       C1506   1.068       .  S
C591        C592   1.417       .  A
C591        C596   1.399       .  A
C591        H597   1.083       .  S
C592        C593   1.416       .  A
C593        C594   1.395       .  A
C593        H598   1.079       .  S
C594        C595   1.398       .  A
C594        H599   1.084       .  S
C595        C596   1.398       .  A
C596        H600   1.083       .  S
C601        C602   1.411       .  A
C601        C606   1.397       .  A
C601        H607   1.083       .  S
C602        C693   1.558       .  S
C602        C603   1.418       .  A
C603        C604   1.400       .  A
C603        H608   1.079       .  S
C604        C605   1.401       .  A
C604        H609   1.083       .  S
C605        C606   1.406       .  A
C606        H610   1.083       .  S
C611        C842   1.409       .  A
C611        C616   1.385       .  A
C611        H617   1.077       .  S
C612        C841   1.409       .  A
C612        C613   1.412   1_554  A
C613        C614   1.407       .  A
C613        H618   1.083       .  S
C614        C615   1.416   1_556  A
C614        H619   1.083       .  S
C615        C846   1.414       .  A
C616        C845   1.414       .  A
C616        H620   1.077       .  S
C621        C622   1.394       .  A
C621        C626   1.391       .  A
C621        H627   1.084       .  S
C622        C623   1.399       .  A
C623        C624   1.400       .  A
C623        H628   1.083       .  S
C624        C625   1.421       .  A
C624        H629   1.073       .  S
C625        C692   1.574       .  S
C625        C626   1.420       .  A
C626        H630   1.076       .  S
C631        C632   1.416       .  A
C631        C636   1.394       .  A
C631        H637   1.083       .  S
C632        C633   1.415       .  A
C633        C634   1.395       .  A
C633        H638   1.081       .  S
C634        C635   1.401       .  A
C634        H639   1.083       .  S
C635        C636   1.400       .  A
C636        H640   1.083       .  S
C641        C642   1.419       .  A
C641        C646   1.406       .  A
C641        H647   1.078       .  S
C642        C873   1.413       .  A
C643        C872   1.413       .  A
C643        C644   1.384       .  A
C643        H648   1.067       .  S
C644        H649   1.084   1_565  S
C646        H650   1.079   1_565  S
C651        C652   1.412       .  A
C651        C656   1.399       .  A
C651        H657   1.083       .  S
C652        C691   1.560       .  S
C652        C653   1.418       .  A
C653        C654   1.402       .  A
C653        H658   1.079       .  S
C654        C655   1.402       .  A
C654        H659   1.083       .  S
C655        C656   1.406       .  A
C656        H660   1.083       .  S
C661        C662   1.398       .  A
C661        C666   1.400       .  A
C661        H667   1.083       .  S
C662        C663   1.398       .  A
C663        C664   1.396       .  A
C663        H668   1.084       .  S
C664        C665   1.416       .  A
C664        H669   1.079       .  S
C665        C666   1.417       .  A
C666        H670   1.083       .  S
C671       C1592   1.413       .  A
C671        C676   1.387       .  A
C671       H1597   1.077       .  S
C672       C1591   1.413       .  A
C672        C903   1.417   1_554  A
C673        C902   1.417       .  A
C673       C1594   1.405   1_455  A
C673        H678   1.083       .  S
C674       C1593   1.405       .  A
C674        C905   1.411       .  A
C674        H679   1.083       .  S
C675        C904   1.411   1_554  A
C675        C676   1.410       .  A
C676        H680   1.078       .  S
H677       C1591   1.077       .  S
C681        C682   1.415       .  A
C681        C686   1.406       .  A
C681        H687   1.079       .  S
C682        C913   1.408       .  A
C683        C912   1.408       .  A
C683        C914   1.386       .  A
C683        H688   1.083       .  S
C684        C913   1.386       .  A
C684        C685   1.411       .  A
C684        H689   1.083       .  S
C685        C686   1.411       .  A
C686        H690   1.080       .  S
C691        C895   1.560       .  S
C691        C905   1.558       .  S
C691        C912   1.550       .  S
C692        C862   1.554       .  S
C692        C872   1.569       .  S
C692        C902   1.570       .  S
C693        C822   1.562       .  S
C693        C842   1.557       .  S
C693        C875   1.548       .  S
C694        C792   1.554       .  S
C694        C815   1.566       .  S
C694        C845   1.573       .  S
C695        C772   1.562       .  S
C695        C785   1.556       .  S
C695        C812   1.550       .  S
C696        C745   1.554       .  S
C696        C782   1.556       .  S
C696        C915   1.550       .  S
Fe697       O713   2.050       .  S
Fe697       O703   2.074       .  S
Fe697       O710   2.066       .  S
Fe697       O702   2.055       .  S
Fe697       O708   1.963       .  S
Fe698       O701   2.057       .  S
Fe698       O705   2.079       .  S
Fe698       O709   2.049       .  S
Fe698       O714   2.065       .  S
Fe698       O708   1.966       .  S
Fe699       O717   2.065       .  S
Fe699       O704   2.062       .  S
Fe699       O711   2.053       .  S
Fe699       O700   2.071       .  S
Fe699       O708   1.958       .  S
O700        C707   1.269       .  A
O701        C715   1.269       .  A
O702        C707   1.268       .  A
O703        C706   1.269       .  A
O704        C716   1.269       .  A
O705        C718   1.272       .  A
C706        O711   1.268       .  A
C706        C852   1.474       .  S
C707        C865   1.470       .  S
O709        C712   1.266       .  A
O710        C712   1.268       .  A
C712        C795   1.468       .  S
O713        C718   1.269       .  A
O714        C716   1.268       .  A
C715        O717   1.268       .  A
C715        C755   1.469       .  S
C716        C742   1.460       .  S
C718        C805   1.471       .  S
Fe719       O735   2.050       .  S
Fe719       O725   2.101       .  S
Fe719       O732   2.108       .  S
Fe719       O724   2.049       .  S
Fe719       O730   1.947       .  S
Fe720       O723   2.040       .  S
Fe720       O727   2.103       .  S
Fe720       O731   2.038       .  S
Fe720       O736   2.107       .  S
Fe720       O730   1.950       .  S
Fe721       O739   2.101       .  S
Fe721       O726   2.039       .  S
Fe721       O733   2.042       .  S
Fe721       O722   2.106       .  S
Fe721       O730   1.949       .  S
O722        C729   1.278       .  A
O723        C737   1.264       .  A
O724        C729   1.268       .  A
O725        C728   1.275       .  A
O726        C738   1.266       .  A
O727        C740   1.275       .  A
C728        O733   1.264       .  A
C728        C892   1.468       .  S
C729        C885   1.487       .  S
O731        C734   1.266       .  A
O732        C734   1.279       .  A
C734        C765   1.483       .  S
O735        C740   1.265       .  A
O736        C738   1.278       .  A
C737        O739   1.275       .  A
C737        C825   1.465       .  S
C738        C835   1.485       .  S
C740        C775   1.473       .  S
C741        C742   1.397       .  A
C741        C746   1.395       .  A
C741        H747   1.084       .  S
C742        C743   1.397       .  A
C743        C744   1.396       .  A
C743        H748   1.083       .  S
C744        C745   1.416       .  A
C744        H749   1.083       .  S
C745        C746   1.415       .  A
C746        H750   1.079       .  S
C751        C752   1.417       .  A
C751        C756   1.395       .  A
C751        H757   1.079       .  S
C752        C753   1.414       .  A
C753        C754   1.395       .  A
C753        H758   1.083       .  S
C754        C755   1.401       .  A
C754        H759   1.083       .  S
C755        C756   1.398       .  A
C756        H760   1.083       .  S
C761        C762   1.411       .  A
C761        C766   1.396       .  A
C761        H767   1.083       .  S
C762        C763   1.418       .  A
C763        C764   1.401       .  A
C763        H768   1.080       .  S
C764        C765   1.401       .  A
C764        H769   1.083       .  S
C765        C766   1.405       .  A
C766        H770   1.083       .  S
C771        C772   1.416       .  A
C771        C776   1.398       .  A
C771        H777   1.080       .  S
C772        C773   1.416       .  A
C773        C774   1.402       .  A
C773        H778   1.083       .  S
C774        C775   1.400       .  A
C774        H779   1.083       .  S
C775        C776   1.400       .  A
C776        H780   1.084       .  S
C781        C782   1.412       .  A
C781        C786   1.387       .  A
C781        H787   1.079       .  S
C783        C784   1.407       .  A
C783        H788   1.083       .  S
C786        H790   1.079   1_565  S
C791        C792   1.415       .  A
C791        C796   1.395       .  A
C791        H797   1.081       .  S
C792        C793   1.416       .  A
C793        C794   1.391       .  A
C793        H798   1.083       .  S
C794        C795   1.399       .  A
C794        H799   1.083       .  S
C795        C796   1.401       .  A
C796        H800   1.083       .  S
C801        C802   1.421       .  A
C801        C806   1.390       .  A
C801        H807   1.079       .  S
C802        C803   1.420       .  A
C803        C804   1.400       .  A
C803        H808   1.071       .  S
C804        C805   1.399       .  A
C804        H809   1.083       .  S
C805        C806   1.393       .  A
C806        H810   1.084       .  S
C811        C812   1.403       .  A
C811        C816   1.386       .  A
C811        H817   1.083       .  S
C812        C813   1.412       .  A
C813        C814   1.406       .  A
C813        H818   1.079       .  S
C814       C1735   1.417       .  A
C814       H1509   1.078       .  S
C815       C1734   1.417       .  A
C815       C1736   1.413       .  A
C816       C1735   1.413       .  A
C816       H1740   1.068       .  S
H819       C1504   1.078       .  S
H820       C1736   1.068       .  S
C821        C822   1.417       .  A
C821        C826   1.399       .  A
C821        H827   1.083       .  S
C822        C823   1.416       .  A
C823        C824   1.395       .  A
C823        H828   1.079       .  S
C824        C825   1.398       .  A
C824        H829   1.084       .  S
C825        C826   1.398       .  A
C826        H830   1.083       .  S
C831        C832   1.411       .  A
C831        C836   1.397       .  A
C831        H837   1.083       .  S
C832        C833   1.418       .  A
C833        C834   1.400       .  A
C833        H838   1.079       .  S
C834        C835   1.401       .  A
C834        H839   1.083       .  S
C835        C836   1.406       .  A
C836        H840   1.083       .  S
C841        C846   1.385       .  A
C841        H847   1.077       .  S
C842        C843   1.412       .  A
C843        C844   1.407       .  A
C843        H848   1.083       .  S
C844        C845   1.416       .  A
C844        H849   1.083       .  S
C846        H850   1.077       .  S
C851        C852   1.394       .  A
C851        C856   1.391       .  A
C851        H857   1.084       .  S
C852        C853   1.399       .  A
C853        C854   1.400       .  A
C853        H858   1.083       .  S
C854        C855   1.421       .  A
C854        H859   1.073       .  S
C855        C856   1.420       .  A
C856        H860   1.076       .  S
C861        C862   1.416       .  A
C861        C866   1.394       .  A
C861        H867   1.083       .  S
C862        C863   1.415       .  A
C863        C864   1.395       .  A
C863        H868   1.081       .  S
C864        C865   1.401       .  A
C864        H869   1.083       .  S
C865        C866   1.400       .  A
C866        H870   1.083       .  S
C871        C872   1.419       .  A
C871        C876   1.406       .  A
C871        H877   1.078       .  S
C873        C874   1.384       .  A
C873        H878   1.067       .  S
C874        H879   1.084   1_565  S
C876        H880   1.079   1_565  S
C881        C882   1.412       .  A
C881        C886   1.399       .  A
C881        H887   1.083       .  S
C882        C883   1.418       .  A
C883        C884   1.402       .  A
C883        H888   1.079       .  S
C884        C885   1.402       .  A
C884        H889   1.083       .  S
C885        C886   1.406       .  A
C886        H890   1.083       .  S
C891        C892   1.399       .  A
C891        C896   1.400       .  A
C891        H897   1.083       .  S
C892        C893   1.398       .  A
C893        C894   1.396       .  A
C893        H898   1.084       .  S
C894        C895   1.416       .  A
C894        H899   1.079       .  S
C895        C896   1.417       .  A
C896        H900   1.083       .  S
C901       C1822   1.413       .  A
C901        C906   1.387       .  A
C901       H1827   1.077       .  S
C902       C1821   1.413       .  A
C903       C1824   1.405   1_455  A
C903        H908   1.083       .  S
C904       C1823   1.405       .  A
C904        H909   1.083       .  S
C905        C906   1.410       .  A
C906        H910   1.078       .  S
H907       C1821   1.077       .  S
C911        C912   1.415       .  A
C911        C916   1.406       .  A
C911        H917   1.079       .  S
C913        H918   1.083       .  S
C914        C915   1.411       .  A
C914        H919   1.083       .  S
C915        C916   1.411       .  A
C916        H920   1.080       .  S
C921       C1342   1.560   1_554  S
C921       C1125   1.560       .  S
C921       C1135   1.558       .  S
C921       C1142   1.550       .  S
C922       C1315   1.574   1_554  S
C922       C1092   1.554       .  S
C922       C1102   1.569       .  S
C922       C1132   1.570       .  S
C923       C1052   1.562       .  S
C923       C1292   1.558   1_554  S
C923       C1072   1.557       .  S
C923       C1105   1.548       .  S
C924       C1022   1.554       .  S
C924       C1262   1.574   1_554  S
C924       C1045   1.566       .  S
C924       C1075   1.573       .  S
C925       C1222   1.557       .  S
C925       C1002   1.562   1_556  S
C925       C1015   1.556       .  S
C925       C1042   1.550   1_556  S
C926        C975   1.554   1_556  S
C926       C1212   1.553       .  S
C926       C1012   1.556   1_556  S
C926       C1145   1.550   1_556  S
Fe927       O943   2.050       .  S
Fe927       O933   2.074       .  S
Fe927       O940   2.066       .  S
Fe927       O932   2.055       .  S
Fe927       O938   1.963       .  S
Fe928       O931   2.057       .  S
Fe928       O935   2.079       .  S
Fe928       O939   2.049       .  S
Fe928       O944   2.065       .  S
Fe928       O938   1.966       .  S
Fe929       O947   2.065       .  S
Fe929       O934   2.062       .  S
Fe929       O941   2.053       .  S
Fe929       O930   2.071       .  S
Fe929       O938   1.958       .  S
O930        C937   1.269       .  A
O931        C945   1.269       .  A
O932        C937   1.268       .  A
O933        C936   1.269       .  A
O934        C946   1.269       .  A
O935        C948   1.272       .  A
C936        O941   1.268       .  A
C936       C1082   1.474       .  S
C937       C1095   1.470       .  S
O939        C942   1.266       .  A
O940        C942   1.268       .  A
C942       C1025   1.468       .  S
O943        C948   1.269       .  A
O944        C946   1.268       .  A
C945        O947   1.268       .  A
C945        C985   1.469       .  S
C946        C972   1.460       .  S
C948       C1035   1.471       .  S
Fe949       O965   2.050       .  S
Fe949       O955   2.101       .  S
Fe949       O962   2.108       .  S
Fe949       O954   2.049       .  S
Fe949       O960   1.947       .  S
Fe950       O953   2.040       .  S
Fe950       O957   2.103       .  S
Fe950       O961   2.038       .  S
Fe950       O966   2.108       .  S
Fe950       O960   1.950       .  S
Fe951       O969   2.101       .  S
Fe951       O956   2.039       .  S
Fe951       O963   2.042       .  S
Fe951       O952   2.106       .  S
Fe951       O960   1.949       .  S
O952        C959   1.278       .  A
O953        C967   1.264       .  A
O954        C959   1.268       .  A
O955        C958   1.275       .  A
O956        C968   1.266       .  A
O957        C970   1.275       .  A
C958        O963   1.264       .  A
C958       C1122   1.467       .  S
C959       C1115   1.487       .  S
O961        C964   1.266       .  A
O962        C964   1.279       .  A
C964        C995   1.483       .  S
O965        C970   1.265       .  A
O966        C968   1.278       .  A
C967        O969   1.275       .  A
C967       C1055   1.465       .  S
C968       C1065   1.485       .  S
C970       C1005   1.473       .  S
C971        C972   1.397       .  A
C971        C976   1.395       .  A
C971        H977   1.084       .  S
C972        C973   1.397       .  A
C973        C974   1.396       .  A
C973        H978   1.083       .  S
C974        C975   1.416       .  A
C974        H979   1.083       .  S
C975        C976   1.415       .  A
C976        H980   1.079       .  S
C981        C982   1.417       .  A
C981        C986   1.395       .  A
C981        H987   1.079       .  S
C982       C1156   1.553       .  S
C982        C983   1.414       .  A
C983        C984   1.395       .  A
C983        H988   1.083       .  S
C984        C985   1.401       .  A
C984        H989   1.083       .  S
C985        C986   1.398       .  A
C986        H990   1.083       .  S
C991        C992   1.411       .  A
C991        C996   1.396       .  A
C991        H997   1.083       .  S
C992       C1155   1.557       .  S
C992        C993   1.418       .  A
C993        C994   1.401       .  A
C993        H998   1.080       .  S
C994        C995   1.401       .  A
C994        H999   1.083       .  S
C995        C996   1.405       .  A
C996       H1000   1.083       .  S
C1001      C1002   1.416       .  A
C1001      C1006   1.398       .  A
C1001      H1007   1.080       .  S
C1002      C1003   1.416       .  A
C1003      C1004   1.402       .  A
C1003      H1008   1.083       .  S
C1004      C1005   1.400       .  A
C1004      H1009   1.083       .  S
C1005      C1006   1.400       .  A
C1006      H1010   1.084       .  S
C1011      C1012   1.412       .  A
C1011      C1016   1.387       .  A
C1011      H1017   1.079       .  S
C1012      C1243   1.413   1_554  A
C1013      C1242   1.413       .  A
C1013      C1014   1.407       .  A
C1013      H1018   1.083       .  S
C1014      C1705   1.413       .  A
C1014      H1479   1.083       .  S
C1015      C1704   1.413   1_545  A
C1015      C1476   1.409   1_546  A
C1016      C1475   1.409   1_554  A
C1016      H1020   1.079       .  S
H1019      C1474   1.083   1_545  S
C1021      C1022   1.415       .  A
C1021      C1026   1.395       .  A
C1021      H1027   1.081       .  S
C1022      C1023   1.416       .  A
C1023      C1024   1.391       .  A
C1023      H1028   1.083       .  S
C1024      C1025   1.399       .  A
C1024      H1029   1.083       .  S
C1025      C1026   1.401       .  A
C1026      H1030   1.083       .  S
C1031      C1032   1.421       .  A
C1031      C1036   1.390       .  A
C1031      H1037   1.079       .  S
C1032      C1154   1.574       .  S
C1032      C1033   1.420       .  A
C1033      C1034   1.400       .  A
C1033      H1038   1.071       .  S
C1034      C1035   1.399       .  A
C1034      H1039   1.083       .  S
C1035      C1036   1.393       .  A
C1036      H1040   1.084       .  S
C1041      C1042   1.403   1_556  A
C1041      C1046   1.386   1_655  A
C1041      H1047   1.083       .  S
C1042      C1043   1.412       .  A
C1043      C1044   1.406   1_655  A
C1043      H1048   1.079       .  S
C1051      C1052   1.417       .  A
C1051      C1056   1.399       .  A
C1051      H1057   1.083       .  S
C1052      C1053   1.416       .  A
C1053      C1054   1.395       .  A
C1053      H1058   1.079       .  S
C1054      C1055   1.398       .  A
C1054      H1059   1.084       .  S
C1055      C1056   1.398       .  A
C1056      H1060   1.083       .  S
C1061      C1062   1.411       .  A
C1061      C1066   1.397       .  A
C1061      H1067   1.083       .  S
C1062      C1153   1.558       .  S
C1062      C1063   1.418       .  A
C1063      C1064   1.400       .  A
C1063      H1068   1.079       .  S
C1064      C1065   1.401       .  A
C1064      H1069   1.083       .  S
C1065      C1066   1.406       .  A
C1066      H1070   1.083       .  S
C1071      C1302   1.409       .  A
C1071      C1076   1.385       .  A
C1071      H1077   1.077       .  S
C1072      C1301   1.409       .  A
C1072      C1073   1.412   1_554  A
C1073      C1074   1.407       .  A
C1073      H1078   1.083       .  S
C1074      C1075   1.416   1_556  A
C1074      H1079   1.083       .  S
C1075      C1306   1.414       .  A
C1076      C1305   1.414       .  A
C1076      H1080   1.077       .  S
C1081      C1082   1.394       .  A
C1081      C1086   1.391       .  A
C1081      H1087   1.084       .  S
C1082      C1083   1.399       .  A
C1083      C1084   1.400       .  A
C1083      H1088   1.083       .  S
C1084      C1085   1.421       .  A
C1084      H1089   1.073       .  S
C1085      C1152   1.574       .  S
C1085      C1086   1.420       .  A
C1086      H1090   1.076       .  S
C1091      C1092   1.416       .  A
C1091      C1096   1.394       .  A
C1091      H1097   1.083       .  S
C1092      C1093   1.415       .  A
C1093      C1094   1.395       .  A
C1093      H1098   1.081       .  S
C1094      C1095   1.401       .  A
C1094      H1099   1.083       .  S
C1095      C1096   1.400       .  A
C1096      H1100   1.083       .  S
C1101      C1102   1.419       .  A
C1101      C1106   1.406       .  A
C1101      H1107   1.078       .  S
C1102      C1333   1.413       .  A
C1103      C1332   1.413       .  A
C1103      C1104   1.384       .  A
C1103      H1108   1.067       .  S
C1104      C1795   1.403       .  A
C1104      H1109   1.084       .  S
C1105      C1794   1.403   1_545  A
C1105      C1566   1.411   1_545  A
C1106      C1565   1.411       .  A
C1106      H1110   1.079       .  S
C1111      C1112   1.412       .  A
C1111      C1116   1.399       .  A
C1111      H1117   1.083       .  S
C1112      C1151   1.560       .  S
C1112      C1113   1.418       .  A
C1113      C1114   1.402       .  A
C1113      H1118   1.079       .  S
C1114      C1115   1.402       .  A
C1114      H1119   1.083       .  S
C1115      C1116   1.406       .  A
C1116      H1120   1.083       .  S
C1121      C1122   1.399       .  A
C1121      C1126   1.400       .  A
C1121      H1127   1.083       .  S
C1122      C1123   1.398       .  A
C1123      C1124   1.396       .  A
C1123      H1128   1.084       .  S
C1124      C1125   1.416       .  A
C1124      H1129   1.079       .  S
C1125      C1126   1.417       .  A
C1126      H1130   1.083       .  S
C1131      C1136   1.387   1_455  A
C1132      C1363   1.417   1_554  A
C1133      C1362   1.417       .  A
C1133      H1138   1.083       .  S
C1134      C1365   1.411       .  A
C1134      H1139   1.083       .  S
C1135      C1364   1.411   1_554  A
C1135      C1136   1.410       .  A
C1136      H1140   1.078       .  S
C1141      C1142   1.415       .  A
C1141      C1146   1.406       .  A
C1141      H1147   1.079       .  S
C1142      C1373   1.408       .  A
C1143      C1372   1.408       .  A
C1143      C1374   1.386       .  A
C1143      H1148   1.083       .  S
C1144      C1373   1.386       .  A
C1144      C1145   1.411       .  A
C1144      H1149   1.083       .  S
C1145      C1146   1.411       .  A
C1146      H1150   1.080       .  S
C1151      C1355   1.560       .  S
C1151      C1365   1.558       .  S
C1151      C1372   1.550       .  S
C1152      C1322   1.554       .  S
C1152      C1332   1.569       .  S
C1152      C1362   1.570       .  S
C1153      C1282   1.562       .  S
C1153      C1302   1.557       .  S
C1153      C1335   1.548       .  S
C1154      C1252   1.554       .  S
C1154      C1275   1.566       .  S
C1154      C1305   1.573       .  S
C1155      C1232   1.562       .  S
C1155      C1245   1.556       .  S
C1155      C1272   1.550       .  S
C1156      C1205   1.554       .  S
C1156      C1242   1.556       .  S
C1156      C1375   1.550       .  S
Fe1157     O1173   2.050       .  S
Fe1157     O1163   2.074       .  S
Fe1157     O1170   2.066       .  S
Fe1157     O1162   2.055       .  S
Fe1157     O1168   1.963       .  S
Fe1158     O1161   2.057       .  S
Fe1158     O1165   2.079       .  S
Fe1158     O1169   2.049       .  S
Fe1158     O1174   2.065       .  S
Fe1158     O1168   1.966       .  S
Fe1159     O1177   2.065       .  S
Fe1159     O1164   2.062       .  S
Fe1159     O1171   2.053       .  S
Fe1159     O1160   2.071       .  S
Fe1159     O1168   1.958       .  S
O1160      C1167   1.269       .  A
O1161      C1175   1.269       .  A
O1162      C1167   1.268       .  A
O1163      C1166   1.269       .  A
O1164      C1176   1.269       .  A
O1165      C1178   1.272       .  A
C1166      O1171   1.268       .  A
C1166      C1312   1.474       .  S
C1167      C1325   1.470       .  S
O1169      C1172   1.266       .  A
O1170      C1172   1.268       .  A
C1172      C1255   1.468       .  S
O1173      C1178   1.269       .  A
O1174      C1176   1.268       .  A
C1175      O1177   1.268       .  A
C1175      C1215   1.469       .  S
C1176      C1202   1.460       .  S
C1178      C1265   1.471       .  S
Fe1179     O1195   2.050       .  S
Fe1179     O1185   2.101       .  S
Fe1179     O1192   2.108       .  S
Fe1179     O1184   2.049       .  S
Fe1179     O1190   1.947       .  S
Fe1180     O1183   2.040       .  S
Fe1180     O1187   2.103       .  S
Fe1180     O1191   2.038       .  S
Fe1180     O1196   2.107       .  S
Fe1180     O1190   1.950       .  S
Fe1181     O1199   2.101       .  S
Fe1181     O1186   2.039       .  S
Fe1181     O1193   2.042       .  S
Fe1181     O1182   2.106       .  S
Fe1181     O1190   1.949       .  S
O1182      C1189   1.278       .  A
O1183      C1197   1.264       .  A
O1184      C1189   1.268       .  A
O1185      C1188   1.275       .  A
O1186      C1198   1.266       .  A
O1187      C1200   1.275       .  A
C1188      O1193   1.264       .  A
C1188      C1352   1.468       .  S
C1189      C1345   1.487       .  S
O1191      C1194   1.266       .  A
O1192      C1194   1.279       .  A
C1194      C1225   1.483       .  S
O1195      C1200   1.265       .  A
O1196      C1198   1.278       .  A
C1197      O1199   1.275       .  A
C1197      C1285   1.465       .  S
C1198      C1295   1.485       .  S
C1200      C1235   1.473       .  S
C1201      C1202   1.397       .  A
C1201      C1206   1.395       .  A
C1201      H1207   1.084       .  S
C1202      C1203   1.397       .  A
C1203      C1204   1.396       .  A
C1203      H1208   1.083       .  S
C1204      C1205   1.416       .  A
C1204      H1209   1.083       .  S
C1205      C1206   1.415       .  A
C1206      H1210   1.079       .  S
C1211      C1212   1.417       .  A
C1211      C1216   1.395       .  A
C1211      H1217   1.079       .  S
C1212      C1213   1.414       .  A
C1213      C1214   1.395       .  A
C1213      H1218   1.083       .  S
C1214      C1215   1.401       .  A
C1214      H1219   1.083       .  S
C1215      C1216   1.398       .  A
C1216      H1220   1.083       .  S
C1221      C1222   1.411       .  A
C1221      C1226   1.396       .  A
C1221      H1227   1.083       .  S
C1222      C1223   1.418       .  A
C1223      C1224   1.401       .  A
C1223      H1228   1.080       .  S
C1224      C1225   1.401       .  A
C1224      H1229   1.083       .  S
C1225      C1226   1.405       .  A
C1226      H1230   1.083       .  S
C1231      C1232   1.416       .  A
C1231      C1236   1.398       .  A
C1231      H1237   1.080       .  S
C1232      C1233   1.416       .  A
C1233      C1234   1.402       .  A
C1233      H1238   1.083       .  S
C1234      C1235   1.400       .  A
C1234      H1239   1.083       .  S
C1235      C1236   1.400       .  A
C1236      H1240   1.084       .  S
C1241      C1242   1.412       .  A
C1241      C1246   1.387       .  A
C1241      H1247   1.079       .  S
C1243      C1244   1.407       .  A
C1243      H1248   1.083       .  S
C1244      C1475   1.413       .  A
C1244      H1709   1.083       .  S
C1245      C1474   1.413   1_545  A
C1245      C1706   1.409   1_545  A
C1246      C1705   1.409       .  A
C1246      H1250   1.079       .  S
H1249      C1704   1.083   1_545  S
C1251      C1252   1.415       .  A
C1251      C1256   1.395       .  A
C1251      H1257   1.081       .  S
C1252      C1253   1.416       .  A
C1253      C1254   1.391       .  A
C1253      H1258   1.083       .  S
C1254      C1255   1.399       .  A
C1254      H1259   1.083       .  S
C1255      C1256   1.401       .  A
C1256      H1260   1.083       .  S
C1261      C1262   1.421       .  A
C1261      C1266   1.390       .  A
C1261      H1267   1.079       .  S
C1262      C1263   1.420       .  A
C1263      C1264   1.400       .  A
C1263      H1268   1.071       .  S
C1264      C1265   1.399       .  A
C1264      H1269   1.083       .  S
C1265      C1266   1.393       .  A
C1266      H1270   1.084       .  S
C1271      C1272   1.403       .  A
C1271      C1276   1.386   1_655  A
C1271      H1277   1.083       .  S
C1272      C1273   1.412       .  A
C1273      C1274   1.406   1_655  A
C1273      H1278   1.079       .  S
C1281      C1282   1.417       .  A
C1281      C1286   1.399       .  A
C1281      H1287   1.083       .  S
C1282      C1283   1.416       .  A
C1283      C1284   1.395       .  A
C1283      H1288   1.079       .  S
C1284      C1285   1.398       .  A
C1284      H1289   1.084       .  S
C1285      C1286   1.398       .  A
C1286      H1290   1.083       .  S
C1291      C1292   1.411       .  A
C1291      C1296   1.397       .  A
C1291      H1297   1.083       .  S
C1292      C1293   1.418       .  A
C1293      C1294   1.400       .  A
C1293      H1298   1.079       .  S
C1294      C1295   1.401       .  A
C1294      H1299   1.083       .  S
C1295      C1296   1.406       .  A
C1296      H1300   1.083       .  S
C1301      C1306   1.385       .  A
C1301      H1307   1.077       .  S
C1302      C1303   1.412       .  A
C1303      C1304   1.407       .  A
C1303      H1308   1.083       .  S
C1304      C1305   1.416       .  A
C1304      H1309   1.083       .  S
C1306      H1310   1.077       .  S
C1311      C1312   1.394       .  A
C1311      C1316   1.391       .  A
C1311      H1317   1.084       .  S
C1312      C1313   1.399       .  A
C1313      C1314   1.400       .  A
C1313      H1318   1.083       .  S
C1314      C1315   1.421       .  A
C1314      H1319   1.073       .  S
C1315      C1316   1.420       .  A
C1316      H1320   1.076       .  S
C1321      C1322   1.416       .  A
C1321      C1326   1.394       .  A
C1321      H1327   1.083       .  S
C1322      C1323   1.415       .  A
C1323      C1324   1.395       .  A
C1323      H1328   1.081       .  S
C1324      C1325   1.401       .  A
C1324      H1329   1.083       .  S
C1325      C1326   1.400       .  A
C1326      H1330   1.083       .  S
C1331      C1332   1.419       .  A
C1331      C1336   1.406       .  A
C1331      H1337   1.078       .  S
C1333      C1334   1.384       .  A
C1333      H1338   1.067       .  S
C1334      C1565   1.403       .  A
C1334      H1339   1.084       .  S
C1335      C1564   1.403   1_545  A
C1335      C1796   1.411   1_545  A
C1336      C1795   1.411       .  A
C1336      H1340   1.079       .  S
C1341      C1342   1.412       .  A
C1341      C1346   1.399       .  A
C1341      H1347   1.083       .  S
C1342      C1343   1.418       .  A
C1343      C1344   1.402       .  A
C1343      H1348   1.079       .  S
C1344      C1345   1.402       .  A
C1344      H1349   1.083       .  S
C1345      C1346   1.406       .  A
C1346      H1350   1.083       .  S
C1351      C1352   1.399       .  A
C1351      C1356   1.400       .  A
C1351      H1357   1.083       .  S
C1352      C1353   1.398       .  A
C1353      C1354   1.396       .  A
C1353      H1358   1.084       .  S
C1354      C1355   1.416       .  A
C1354      H1359   1.079       .  S
C1355      C1356   1.417       .  A
C1356      H1360   1.083       .  S
C1361      C1366   1.387   1_455  A
C1363      H1368   1.083       .  S
C1364      H1369   1.083       .  S
C1365      C1366   1.410       .  A
C1366      H1370   1.078       .  S
C1371      C1372   1.415       .  A
C1371      C1376   1.406       .  A
C1371      H1377   1.079       .  S
C1373      H1378   1.083       .  S
C1374      C1375   1.411       .  A
C1374      H1379   1.083       .  S
C1375      C1376   1.411       .  A
C1376      H1380   1.080       .  S
C1381      C1802   1.560   1_554  S
C1381      C1585   1.560       .  S
C1381      C1595   1.558       .  S
C1381      C1602   1.550       .  S
C1382      C1775   1.574   1_554  S
C1382      C1552   1.554       .  S
C1382      C1562   1.569       .  S
C1382      C1592   1.570       .  S
C1383      C1512   1.562       .  S
C1383      C1752   1.558   1_554  S
C1383      C1532   1.557       .  S
C1383      C1565   1.548       .  S
C1384      C1482   1.554       .  S
C1384      C1722   1.574   1_554  S
C1384      C1505   1.566       .  S
C1384      C1535   1.573       .  S
C1385      C1682   1.557       .  S
C1385      C1462   1.562   1_556  S
C1385      C1475   1.556       .  S
C1385      C1502   1.550   1_556  S
C1386      C1435   1.554   1_556  S
C1386      C1672   1.553       .  S
C1386      C1472   1.556   1_556  S
C1386      C1605   1.550   1_556  S
Fe1387     O1403   2.050       .  S
Fe1387     O1393   2.074       .  S
Fe1387     O1400   2.066       .  S
Fe1387     O1392   2.055       .  S
Fe1387     O1398   1.963       .  S
Fe1388     O1391   2.057       .  S
Fe1388     O1395   2.079       .  S
Fe1388     O1399   2.049       .  S
Fe1388     O1404   2.065       .  S
Fe1388     O1398   1.966       .  S
Fe1389     O1407   2.065       .  S
Fe1389     O1394   2.062       .  S
Fe1389     O1401   2.053       .  S
Fe1389     O1390   2.071       .  S
Fe1389     O1398   1.958       .  S
O1390      C1397   1.269       .  A
O1391      C1405   1.269       .  A
O1392      C1397   1.268       .  A
O1393      C1396   1.269       .  A
O1394      C1406   1.269       .  A
O1395      C1408   1.272       .  A
C1396      O1401   1.268       .  A
C1396      C1542   1.474       .  S
C1397      C1555   1.470       .  S
O1399      C1402   1.266       .  A
O1400      C1402   1.268       .  A
C1402      C1485   1.468       .  S
O1403      C1408   1.269       .  A
O1404      C1406   1.268       .  A
C1405      O1407   1.268       .  A
C1405      C1445   1.469       .  S
C1406      C1432   1.460       .  S
C1408      C1495   1.471       .  S
Fe1409     O1425   2.050       .  S
Fe1409     O1415   2.101       .  S
Fe1409     O1422   2.108       .  S
Fe1409     O1414   2.049       .  S
Fe1409     O1420   1.947       .  S
Fe1410     O1413   2.040       .  S
Fe1410     O1417   2.103       .  S
Fe1410     O1421   2.038       .  S
Fe1410     O1426   2.107       .  S
Fe1410     O1420   1.950       .  S
Fe1411     O1429   2.101       .  S
Fe1411     O1416   2.039       .  S
Fe1411     O1423   2.042       .  S
Fe1411     O1412   2.106       .  S
Fe1411     O1420   1.949       .  S
O1412      C1419   1.278       .  A
O1413      C1427   1.264       .  A
O1414      C1419   1.268       .  A
O1415      C1418   1.275       .  A
O1416      C1428   1.266       .  A
O1417      C1430   1.275       .  A
C1418      O1423   1.264       .  A
C1418      C1582   1.467       .  S
C1419      C1575   1.487       .  S
O1421      C1424   1.266       .  A
O1422      C1424   1.279       .  A
C1424      C1455   1.483       .  S
O1425      C1430   1.265       .  A
O1426      C1428   1.278       .  A
C1427      O1429   1.275       .  A
C1427      C1515   1.465       .  S
C1428      C1525   1.485       .  S
C1430      C1465   1.473       .  S
C1431      C1432   1.397       .  A
C1431      C1436   1.395       .  A
C1431      H1437   1.084       .  S
C1432      C1433   1.397       .  A
C1433      C1434   1.396       .  A
C1433      H1438   1.083       .  S
C1434      C1435   1.416       .  A
C1434      H1439   1.083       .  S
C1435      C1436   1.415       .  A
C1436      H1440   1.079       .  S
C1441      C1442   1.417       .  A
C1441      C1446   1.395       .  A
C1441      H1447   1.079       .  S
C1442      C1616   1.553       .  S
C1442      C1443   1.414       .  A
C1443      C1444   1.395       .  A
C1443      H1448   1.083       .  S
C1444      C1445   1.401       .  A
C1444      H1449   1.083       .  S
C1445      C1446   1.398       .  A
C1446      H1450   1.083       .  S
C1451      C1452   1.411       .  A
C1451      C1456   1.396       .  A
C1451      H1457   1.083       .  S
C1452      C1615   1.557       .  S
C1452      C1453   1.418       .  A
C1453      C1454   1.401       .  A
C1453      H1458   1.080       .  S
C1454      C1455   1.401       .  A
C1454      H1459   1.083       .  S
C1455      C1456   1.405       .  A
C1456      H1460   1.083       .  S
C1461      C1462   1.416       .  A
C1461      C1466   1.398       .  A
C1461      H1467   1.080       .  S
C1462      C1463   1.416       .  A
C1463      C1464   1.402       .  A
C1463      H1468   1.083       .  S
C1464      C1465   1.400       .  A
C1464      H1469   1.083       .  S
C1465      C1466   1.400       .  A
C1466      H1470   1.084       .  S
C1471      C1472   1.412       .  A
C1471      C1476   1.387       .  A
C1471      H1477   1.079       .  S
C1472      C1703   1.413   1_554  A
C1473      C1702   1.413       .  A
C1473      C1474   1.407       .  A
C1473      H1478   1.083       .  S
C1476      H1480   1.079   1_565  S
C1481      C1482   1.415       .  A
C1481      C1486   1.395       .  A
C1481      H1487   1.081       .  S
C1482      C1483   1.416       .  A
C1483      C1484   1.391       .  A
C1483      H1488   1.083       .  S
C1484      C1485   1.399       .  A
C1484      H1489   1.083       .  S
C1485      C1486   1.401       .  A
C1486      H1490   1.083       .  S
C1491      C1492   1.421       .  A
C1491      C1496   1.390       .  A
C1491      H1497   1.079       .  S
C1492      C1614   1.574       .  S
C1492      C1493   1.420       .  A
C1493      C1494   1.400       .  A
C1493      H1498   1.071       .  S
C1494      C1495   1.399       .  A
C1494      H1499   1.083       .  S
C1495      C1496   1.393       .  A
C1496      H1500   1.084       .  S
C1501      C1502   1.403   1_556  A
C1501      C1506   1.386   1_655  A
C1501      H1507   1.083       .  S
C1502      C1503   1.412       .  A
C1503      C1504   1.406   1_655  A
C1503      H1508   1.079       .  S
C1511      C1512   1.417       .  A
C1511      C1516   1.399       .  A
C1511      H1517   1.083       .  S
C1512      C1513   1.416       .  A
C1513      C1514   1.395       .  A
C1513      H1518   1.079       .  S
C1514      C1515   1.398       .  A
C1514      H1519   1.084       .  S
C1515      C1516   1.398       .  A
C1516      H1520   1.083       .  S
C1521      C1522   1.411       .  A
C1521      C1526   1.397       .  A
C1521      H1527   1.083       .  S
C1522      C1613   1.558       .  S
C1522      C1523   1.418       .  A
C1523      C1524   1.400       .  A
C1523      H1528   1.079       .  S
C1524      C1525   1.401       .  A
C1524      H1529   1.083       .  S
C1525      C1526   1.406       .  A
C1526      H1530   1.083       .  S
C1531      C1762   1.409       .  A
C1531      C1536   1.385       .  A
C1531      H1537   1.077       .  S
C1532      C1761   1.409       .  A
C1532      C1533   1.412   1_554  A
C1533      C1534   1.407       .  A
C1533      H1538   1.083       .  S
C1534      C1535   1.416   1_556  A
C1534      H1539   1.083       .  S
C1535      C1766   1.414       .  A
C1536      C1765   1.414       .  A
C1536      H1540   1.077       .  S
C1541      C1542   1.394       .  A
C1541      C1546   1.391       .  A
C1541      H1547   1.084       .  S
C1542      C1543   1.399       .  A
C1543      C1544   1.400       .  A
C1543      H1548   1.083       .  S
C1544      C1545   1.421       .  A
C1544      H1549   1.073       .  S
C1545      C1612   1.574       .  S
C1545      C1546   1.420       .  A
C1546      H1550   1.076       .  S
C1551      C1552   1.416       .  A
C1551      C1556   1.394       .  A
C1551      H1557   1.083       .  S
C1552      C1553   1.415       .  A
C1553      C1554   1.395       .  A
C1553      H1558   1.081       .  S
C1554      C1555   1.401       .  A
C1554      H1559   1.083       .  S
C1555      C1556   1.400       .  A
C1556      H1560   1.083       .  S
C1561      C1562   1.419       .  A
C1561      C1566   1.406       .  A
C1561      H1567   1.078       .  S
C1562      C1793   1.413       .  A
C1563      C1792   1.413       .  A
C1563      C1564   1.384       .  A
C1563      H1568   1.067       .  S
C1564      H1569   1.084   1_565  S
C1566      H1570   1.079   1_565  S
C1571      C1572   1.412       .  A
C1571      C1576   1.399       .  A
C1571      H1577   1.083       .  S
C1572      C1611   1.560       .  S
C1572      C1573   1.418       .  A
C1573      C1574   1.402       .  A
C1573      H1578   1.079       .  S
C1574      C1575   1.402       .  A
C1574      H1579   1.083       .  S
C1575      C1576   1.406       .  A
C1576      H1580   1.083       .  S
C1581      C1582   1.398       .  A
C1581      C1586   1.400       .  A
C1581      H1587   1.083       .  S
C1582      C1583   1.398       .  A
C1583      C1584   1.396       .  A
C1583      H1588   1.084       .  S
C1584      C1585   1.416       .  A
C1584      H1589   1.079       .  S
C1585      C1586   1.417       .  A
C1586      H1590   1.083       .  S
C1591      C1596   1.387   1_455  A
C1592      C1823   1.417   1_554  A
C1593      C1822   1.417       .  A
C1593      H1598   1.083       .  S
C1594      C1825   1.411       .  A
C1594      H1599   1.083       .  S
C1595      C1824   1.411   1_554  A
C1595      C1596   1.410       .  A
C1596      H1600   1.078       .  S
C1601      C1602   1.415       .  A
C1601      C1606   1.406       .  A
C1601      H1607   1.079       .  S
C1602      C1833   1.408       .  A
C1603      C1832   1.408       .  A
C1603      C1834   1.386       .  A
C1603      H1608   1.083       .  S
C1604      C1833   1.386       .  A
C1604      C1605   1.411       .  A
C1604      H1609   1.083       .  S
C1605      C1606   1.411       .  A
C1606      H1610   1.080       .  S
C1611      C1815   1.560       .  S
C1611      C1825   1.558       .  S
C1611      C1832   1.550       .  S
C1612      C1782   1.554       .  S
C1612      C1792   1.569       .  S
C1612      C1822   1.570       .  S
C1613      C1742   1.562       .  S
C1613      C1762   1.557       .  S
C1613      C1795   1.548       .  S
C1614      C1712   1.554       .  S
C1614      C1735   1.566       .  S
C1614      C1765   1.573       .  S
C1615      C1692   1.562       .  S
C1615      C1705   1.556       .  S
C1615      C1732   1.550       .  S
C1616      C1665   1.554       .  S
C1616      C1702   1.556       .  S
C1616      C1835   1.550       .  S
Fe1617     O1633   2.050       .  S
Fe1617     O1623   2.074       .  S
Fe1617     O1630   2.066       .  S
Fe1617     O1622   2.055       .  S
Fe1617     O1628   1.963       .  S
Fe1618     O1621   2.057       .  S
Fe1618     O1625   2.079       .  S
Fe1618     O1629   2.049       .  S
Fe1618     O1634   2.065       .  S
Fe1618     O1628   1.966       .  S
Fe1619     O1637   2.065       .  S
Fe1619     O1624   2.062       .  S
Fe1619     O1631   2.053       .  S
Fe1619     O1620   2.071       .  S
Fe1619     O1628   1.958       .  S
O1620      C1627   1.269       .  A
O1621      C1635   1.269       .  A
O1622      C1627   1.268       .  A
O1623      C1626   1.269       .  A
O1624      C1636   1.269       .  A
O1625      C1638   1.272       .  A
C1626      O1631   1.268       .  A
C1626      C1772   1.474       .  S
C1627      C1785   1.470       .  S
O1629      C1632   1.266       .  A
O1630      C1632   1.268       .  A
C1632      C1715   1.468       .  S
O1633      C1638   1.269       .  A
O1634      C1636   1.268       .  A
C1635      O1637   1.268       .  A
C1635      C1675   1.469       .  S
C1636      C1662   1.460       .  S
C1638      C1725   1.471       .  S
Fe1639     O1655   2.050       .  S
Fe1639     O1645   2.101       .  S
Fe1639     O1652   2.108       .  S
Fe1639     O1644   2.049       .  S
Fe1639     O1650   1.947       .  S
Fe1640     O1643   2.040       .  S
Fe1640     O1647   2.103       .  S
Fe1640     O1651   2.038       .  S
Fe1640     O1656   2.107       .  S
Fe1640     O1650   1.950       .  S
Fe1641     O1659   2.101       .  S
Fe1641     O1646   2.039       .  S
Fe1641     O1653   2.042       .  S
Fe1641     O1642   2.106       .  S
Fe1641     O1650   1.949       .  S
O1642      C1649   1.278       .  A
O1643      C1657   1.264       .  A
O1644      C1649   1.268       .  A
O1645      C1648   1.275       .  A
O1646      C1658   1.266       .  A
O1647      C1660   1.275       .  A
C1648      O1653   1.264       .  A
C1648      C1812   1.468       .  S
C1649      C1805   1.487       .  S
O1651      C1654   1.266       .  A
O1652      C1654   1.279       .  A
C1654      C1685   1.483       .  S
O1655      C1660   1.265       .  A
O1656      C1658   1.278       .  A
C1657      O1659   1.275       .  A
C1657      C1745   1.465       .  S
C1658      C1755   1.485       .  S
C1660      C1695   1.473       .  S
C1661      C1662   1.397       .  A
C1661      C1666   1.395       .  A
C1661      H1667   1.084       .  S
C1662      C1663   1.397       .  A
C1663      C1664   1.396       .  A
C1663      H1668   1.083       .  S
C1664      C1665   1.416       .  A
C1664      H1669   1.083       .  S
C1665      C1666   1.415       .  A
C1666      H1670   1.079       .  S
C1671      C1672   1.417       .  A
C1671      C1676   1.395       .  A
C1671      H1677   1.079       .  S
C1672      C1673   1.414       .  A
C1673      C1674   1.395       .  A
C1673      H1678   1.083       .  S
C1674      C1675   1.401       .  A
C1674      H1679   1.083       .  S
C1675      C1676   1.398       .  A
C1676      H1680   1.083       .  S
C1681      C1682   1.411       .  A
C1681      C1686   1.396       .  A
C1681      H1687   1.083       .  S
C1682      C1683   1.418       .  A
C1683      C1684   1.401       .  A
C1683      H1688   1.080       .  S
C1684      C1685   1.401       .  A
C1684      H1689   1.083       .  S
C1685      C1686   1.405       .  A
C1686      H1690   1.083       .  S
C1691      C1692   1.416       .  A
C1691      C1696   1.398       .  A
C1691      H1697   1.080       .  S
C1692      C1693   1.416       .  A
C1693      C1694   1.402       .  A
C1693      H1698   1.083       .  S
C1694      C1695   1.400       .  A
C1694      H1699   1.083       .  S
C1695      C1696   1.400       .  A
C1696      H1700   1.084       .  S
C1701      C1702   1.412       .  A
C1701      C1706   1.387       .  A
C1701      H1707   1.079       .  S
C1703      C1704   1.407       .  A
C1703      H1708   1.083       .  S
C1706      H1710   1.079   1_565  S
C1711      C1712   1.415       .  A
C1711      C1716   1.395       .  A
C1711      H1717   1.081       .  S
C1712      C1713   1.416       .  A
C1713      C1714   1.391       .  A
C1713      H1718   1.083       .  S
C1714      C1715   1.399       .  A
C1714      H1719   1.083       .  S
C1715      C1716   1.401       .  A
C1716      H1720   1.083       .  S
C1721      C1722   1.421       .  A
C1721      C1726   1.390       .  A
C1721      H1727   1.079       .  S
C1722      C1723   1.420       .  A
C1723      C1724   1.400       .  A
C1723      H1728   1.071       .  S
C1724      C1725   1.399       .  A
C1724      H1729   1.083       .  S
C1725      C1726   1.393       .  A
C1726      H1730   1.084       .  S
C1731      C1732   1.403       .  A
C1731      C1736   1.386   1_655  A
C1731      H1737   1.083       .  S
C1732      C1733   1.412       .  A
C1733      C1734   1.406   1_655  A
C1733      H1738   1.079       .  S
C1741      C1742   1.417       .  A
C1741      C1746   1.399       .  A
C1741      H1747   1.083       .  S
C1742      C1743   1.416       .  A
C1743      C1744   1.395       .  A
C1743      H1748   1.079       .  S
C1744      C1745   1.398       .  A
C1744      H1749   1.084       .  S
C1745      C1746   1.398       .  A
C1746      H1750   1.083       .  S
C1751      C1752   1.411       .  A
C1751      C1756   1.397       .  A
C1751      H1757   1.083       .  S
C1752      C1753   1.418       .  A
C1753      C1754   1.400       .  A
C1753      H1758   1.079       .  S
C1754      C1755   1.401       .  A
C1754      H1759   1.083       .  S
C1755      C1756   1.406       .  A
C1756      H1760   1.083       .  S
C1761      C1766   1.385       .  A
C1761      H1767   1.077       .  S
C1762      C1763   1.412       .  A
C1763      C1764   1.407       .  A
C1763      H1768   1.083       .  S
C1764      C1765   1.416       .  A
C1764      H1769   1.083       .  S
C1766      H1770   1.077       .  S
C1771      C1772   1.394       .  A
C1771      C1776   1.391       .  A
C1771      H1777   1.084       .  S
C1772      C1773   1.399       .  A
C1773      C1774   1.400       .  A
C1773      H1778   1.083       .  S
C1774      C1775   1.421       .  A
C1774      H1779   1.073       .  S
C1775      C1776   1.420       .  A
C1776      H1780   1.076       .  S
C1781      C1782   1.416       .  A
C1781      C1786   1.394       .  A
C1781      H1787   1.083       .  S
C1782      C1783   1.415       .  A
C1783      C1784   1.395       .  A
C1783      H1788   1.081       .  S
C1784      C1785   1.401       .  A
C1784      H1789   1.083       .  S
C1785      C1786   1.400       .  A
C1786      H1790   1.083       .  S
C1791      C1792   1.419       .  A
C1791      C1796   1.406       .  A
C1791      H1797   1.078       .  S
C1793      C1794   1.384       .  A
C1793      H1798   1.067       .  S
C1794      H1799   1.084   1_565  S
C1796      H1800   1.079   1_565  S
C1801      C1802   1.412       .  A
C1801      C1806   1.399       .  A
C1801      H1807   1.083       .  S
C1802      C1803   1.418       .  A
C1803      C1804   1.402       .  A
C1803      H1808   1.079       .  S
C1804      C1805   1.402       .  A
C1804      H1809   1.083       .  S
C1805      C1806   1.406       .  A
C1806      H1810   1.083       .  S
C1811      C1812   1.399       .  A
C1811      C1816   1.400       .  A
C1811      H1817   1.083       .  S
C1812      C1813   1.398       .  A
C1813      C1814   1.396       .  A
C1813      H1818   1.084       .  S
C1814      C1815   1.416       .  A
C1814      H1819   1.079       .  S
C1815      C1816   1.417       .  A
C1816      H1820   1.083       .  S
C1821      C1826   1.387   1_455  A
C1823      H1828   1.083       .  S
C1824      H1829   1.083       .  S
C1825      C1826   1.410       .  A
C1826      H1830   1.078       .  S
C1831      C1832   1.415       .  A
C1831      C1836   1.406       .  A
C1831      H1837   1.079       .  S
C1833      H1838   1.083       .  S
C1834      C1835   1.411       .  A
C1834      H1839   1.083       .  S
C1835      C1836   1.411       .  A
C1836      H1840   1.080       .  S
