geometry optimzed in LAMMPS
_audit_creation_date              2020-11-30 
_audit_creation_method            'lammps2cif' 
_symmetry_space_group_name_H-M    'P1' 
_symmetry_Int_Tables_number       1 
_symmetry_cell_setting            triclinic 
loop_ 
_symmetry_equiv_pos_as_xyz 
  x,y,z 
_cell_length_a                    34.28188456 
_cell_length_b                    33.605334020242616 
_cell_length_c                    43.04465122847083 
_cell_angle_alpha                 89.81993715041293 
_cell_angle_beta                  90.3736386748684 
_cell_angle_gamma                 122.37362009320869 
loop_ 
_atom_site_label 
_atom_site_type_symbol 
_atom_site_fract_x 
_atom_site_fract_y 
_atom_site_fract_z 
_atom_site_charge 
Zn1        Zn  0.40885396  0.20563625  0.85169308     1.49700
Zn2        Zn  0.31056716  0.19456853  0.84270644     1.49400
Zn3        Zn  0.35332015  0.16485993  0.78702805     1.49100
Zn4        Zn  0.31664257  0.10568183  0.85103989     1.49500
O5          O  0.34766465  0.16811282  0.83262966    -1.84700
O6          O  0.41332490  0.25735026  0.87854036    -0.75400
O7          O  0.29161241  0.21282683  0.80365456    -0.75200
O8          O  0.42197781  0.20047730  0.77435048    -0.74700
O9          O  0.34704422  0.25247651  0.86884986    -0.75400
O10         O  0.45802287  0.23426697  0.81865430    -0.75000
O11         O  0.32186044  0.19443374  0.76475235    -0.75600
O12         O  0.29099916  0.05790684  0.81744819    -0.74900
O13         O  0.25345789  0.14990382  0.86761520    -0.75700
O14         O  0.32098827  0.09587571  0.77308842    -0.75100
O15         O  0.26384470  0.09171415  0.87848004    -0.75600
O16         O  0.36006084  0.09415207  0.87498147    -0.75500
O17         O  0.42472630  0.16501020  0.87679217    -0.75300
C18         C  0.38635194  0.27225112  0.88213969     0.76500
C19         C  0.29875938  0.21142932  0.77481014     0.77000
C20         C  0.45919740  0.22742707  0.78963631     0.76000
C21         C  0.29702124  0.05760559  0.78838565     0.76400
C22         C  0.24071303  0.11100935  0.88106109     0.77500
C23         C  0.40205142  0.12117877  0.88302809     0.76500
C24         C  0.20890651  0.29915654  0.72161223     0.85900
C25         C  0.16216543  0.27686968  0.73842285    -0.54400
C26         C  0.13960571  0.29985153  0.73403869     0.08800
C27         C  0.16632637  0.34405419  0.71347719     0.19800
C28         C  0.19846332  0.30347153  0.68749369    -0.55100
C29         C  0.17612153  0.32687934  0.68279398     0.08900
C30         C  0.23547214  0.35025897  0.73376733    -0.54600
C31         C  0.21371842  0.37391112  0.72947447     0.09500
H32         H  0.14841496  0.24617302  0.75330155     0.14000
H33         H  0.14839142  0.36318617  0.71126953    -0.00300
H34         H  0.20887574  0.28940526  0.66901296     0.14300
H35         H  0.26763827  0.36624622  0.74670181     0.14100
C36         C  0.05977809  0.02269896  0.93871478     0.85900
C37         C  0.04017394  0.05089512  0.92555860    -0.54400
C38         C  0.49526572  0.03388653  0.93272541     0.08800
C39         C  0.47356215  0.48947516  0.95373377     0.19800
C40         C  0.05142005  0.02039223  0.97379141    -0.55100
C41         C  0.50630704  0.50299626  0.98211933     0.08900
C42         C  0.02494730  0.47221986  0.92694752    -0.54600
C43         C  0.48046617  0.45464033  0.93537233     0.09500
H44         H  0.06018443  0.08185553  0.91107065     0.14000
H45         H  0.43697627  0.47538698  0.95938356    -0.00300
H46         H  0.07938145  0.03058431  0.99008238     0.14300
H47         H  0.03303118  0.45078397  0.91320302     0.14100
Zn48       Zn  0.02903810  0.46730559  0.49148723     1.49700
Zn49       Zn  0.49473137  0.00566390  0.54784612     1.49400
Zn50       Zn  0.03077791  0.06220901  0.48230721     1.49100
Zn51       Zn  0.43545476  0.46318133  0.48548723     1.49500
O52         O  0.49778422  0.00001882  0.50216943    -1.84700
O53         O  0.04901019  0.45056288  0.53077099    -0.75400
O54         O  0.02876522  0.07497279  0.56000237    -0.75200
O55         O  0.08755980  0.07497697  0.45939909    -0.74700
O56         O  0.02562405  0.47586346  0.57002493    -0.75400
O57         O  0.08771416  0.00970269  0.46648807    -0.75000
O58         O  0.05349212  0.11301173  0.51493776    -0.75600
O59         O  0.42338318  0.00095990  0.45511127    -0.74900
O60         O  0.42832779  0.47341980  0.56304962    -0.75700
O61         O  0.48927839  0.06986258  0.45213306    -0.75100
O62         O  0.38932182  0.44446068  0.51913377    -0.75600
O63         O  0.42140348  0.40372056  0.46460096    -0.75500
O64         O  0.48740865  0.40635144  0.46713108    -0.75300
C65         C  0.04577265  0.45589343  0.55971263     0.76500
C66         C  0.05021056  0.11315697  0.54439459     0.77000
C67         C  0.10653174  0.05151248  0.45588905     0.76000
C68         C  0.44722232  0.04222509  0.44392177     0.76400
C69         C  0.39008876  0.45052725  0.54832273     0.77500
C70         C  0.44498922  0.38555098  0.45911804     0.76500
C71         C  0.35756574  0.13057211  0.38995945     0.85900
C72         C  0.30889928  0.10666777  0.40418697    -0.54400
C73         C  0.28596987  0.12883072  0.39825499     0.08800
C74         C  0.31540481  0.17537453  0.38014187     0.19800
C75         C  0.35047489  0.13689556  0.35546933    -0.55100
C76         C  0.32873310  0.16068527  0.34985222     0.08900
C77         C  0.38220329  0.18007368  0.40415720    -0.54600
C78         C  0.36111961  0.20403838  0.39859803     0.09500
H79         H  0.29399839  0.07570574  0.41888324     0.14000
H80         H  0.29782372  0.19469603  0.37689654    -0.00300
H81         H  0.36216721  0.12330062  0.33750633     0.14300
H82         H  0.41317857  0.19481364  0.41837640     0.14100
C83         C  0.13700362  0.36984427  0.61246745     0.85900
C84         C  0.11423282  0.32169208  0.59608456    -0.54400
C85         C  0.13614231  0.29813035  0.60060335     0.08800
C86         C  0.18050230  0.32586863  0.62031215     0.19800
C87         C  0.14217940  0.35998581  0.64653134    -0.55100
C88         C  0.16514571  0.33721410  0.65111413     0.08900
C89         C  0.18677998  0.39643156  0.59984586    -0.54600
C90         C  0.20927239  0.37346296  0.60354169     0.09500
H91         H  0.08362093  0.30743640  0.58154814     0.14000
H92         H  0.19895793  0.30731025  0.62275755    -0.00300
H93         H  0.12902367  0.37115783  0.66508490     0.14300
H94         H  0.20273783  0.42929821  0.58711775     0.14100
Zn95       Zn  0.21271417  0.36954132  0.18361811     1.49700
Zn96       Zn  0.15194464  0.32907199  0.12069669     1.49400
Zn97       Zn  0.11695225  0.27120788  0.18512388     1.49100
Zn98       Zn  0.11866658  0.36601847  0.17796795     1.49500
O99         O  0.15000327  0.33395908  0.16658308    -1.84700
O100        O  0.25836340  0.38941937  0.14896115    -0.75400
O101        O  0.12116820  0.26067869  0.10732453    -0.75200
O102        O  0.15820721  0.26250864  0.21412974    -0.74700
O103        O  0.21810008  0.36130000  0.10538496    -0.75400
O104        O  0.22477545  0.33093207  0.21342773    -0.75000
O105        O  0.09719824  0.22215268  0.15202887    -0.75600
O106        O  0.06139312  0.32418627  0.20343660    -0.72200
O107        O  0.12125188  0.35986390  0.09915122    -0.75700
O108        O  0.06038666  0.25798457  0.20884155    -0.75100
O109        O  0.10011734  0.38537139  0.13948222    -0.75600
O110        O  0.16051247  0.42576690  0.20212927    -0.75500
O111        O  0.22622218  0.42781465  0.20649040    -0.75300
C112        C  0.25674737  0.38382609  0.11959427     0.76500
C113        C  0.10204222  0.22232815  0.12274425     0.77000
C114        C  0.19988829  0.28874337  0.22319694     0.76000
C115        C  0.04286809  0.28250808  0.21410996     0.76400
C116        C  0.10291850  0.38117994  0.11034890     0.77500
C117        C  0.20209993  0.44551458  0.21158304     0.76500
C118        C  0.43825010  0.46615090  0.06013959     0.85900
C119        C  0.46748738  0.01741417  0.07174756    -0.54400
C120        C  0.01165450  0.04114541  0.06343129     0.08800
C121        C  0.02498039  0.01276571  0.04308814     0.19800
C122        C  0.44504773  0.47125547  0.02439978    -0.55100
C123        C  0.99083058  0.99568740  0.01531610     0.08900
C124        C  0.46487222  0.44309883  0.06981294    -0.54600
C125        C  0.01078494  0.46745958  0.06108753     0.09500
H126        H  0.45343389  0.03305915  0.08638208     0.14000
H127        H  0.06189329  0.03322627  0.03693309    -0.00300
H128        H  0.41683473  0.45588565  0.00790254     0.14300
H129        H  0.44881211  0.40994741  0.08239442     0.14100
C130        C  0.29304397  0.20362507  0.27751072     0.85900
C131        C  0.26671435  0.15376085  0.26352797    -0.54400
C132        C  0.28691884  0.12880216  0.26835646     0.08800
C133        C  0.33193132  0.15562327  0.28748340     0.19800
C134        C  0.29887925  0.19629424  0.31201178    -0.55100
C135        C  0.31925436  0.17119483  0.31768952     0.08900
C136        C  0.34148068  0.22563833  0.26330374    -0.54600
C137        C  0.36249282  0.20138650  0.26898870     0.09500
H138        H  0.23566022  0.13972855  0.24945696     0.14000
H139        H  0.34817422  0.13514287  0.29106992    -0.00300
H140        H  0.28764856  0.21036529  0.32997020     0.14300
H141        H  0.35732924  0.25649044  0.24850331     0.14100
C142        C  0.30132879  0.40313859  0.10261701    -0.06700
C143        C  0.34104539  0.41791204  0.12064615    -0.17900
C144        C  0.38460342  0.43684250  0.10743292     0.10500
C145        C  0.38973927  0.44106734  0.07451564    -0.06600
C146        C  0.34965357  0.42490880  0.05628785    -0.17900
C147        C  0.30603716  0.40677876  0.06982645     0.10500
S148        S  0.43335224  0.45690452  0.13373463    -0.32900
S149        S  0.25858001  0.39101939  0.04375963    -0.32900
H150        H  0.24437966  0.41739551  0.05998918     0.28500
H151        H  0.40883937  0.44191088  0.16181875     0.28500
H152        H  0.33816716  0.41500756  0.14566919     0.19100
H153        H  0.35179659  0.42779938  0.03129947     0.19100
C154        C  0.04348475  0.08910534  0.07560001    -0.06700
C155        C  0.05689918  0.09328305  0.10677760    -0.17900
C156        C  0.07895121  0.13667843  0.12201330     0.10500
C157        C  0.08500869  0.17689440  0.10643140    -0.06600
C158        C  0.07280001  0.17285071  0.07477528    -0.17900
C159        C  0.05265365  0.12956707  0.05919497     0.10500
S160        S  0.09888232  0.13783776  0.16109623    -0.32900
S161        S  0.03604984  0.12711590  0.01913835    -0.32900
H162        H  0.04964959  0.09617311  0.01025428     0.28500
H163        H  0.14115942  0.18099175  0.15725580     0.28500
H164        H  0.04928889  0.06209909  0.11958280     0.19100
H165        H  0.07767436  0.20320940  0.06226587     0.19100
C166        C  0.08553140  0.40365914  0.08988872    -0.06700
C167        C  0.10641374  0.45253213  0.09264061    -0.17900
C168        C  0.08475590  0.47525631  0.08139639     0.10500
C169        C  0.04047071  0.44819219  0.06754646    -0.06600
C170        C  0.02150286  0.39973639  0.06254266    -0.17900
C171        C  0.04365925  0.37736117  0.07331230     0.10500
S172        S  0.11148944  0.03756351  0.08902530    -0.32900
S173        S  0.01451393  0.31455553  0.06815352    -0.32900
H174        H  0.05492541  0.31484115  0.06229731     0.28500
H175        H  0.15485978  0.04643126  0.09834793     0.28500
H176        H  0.13851738  0.47247455  0.10554811     0.19100
H177        H  0.98816627  0.37868992  0.05118400     0.19100
C178        C  0.22098033  0.26957422  0.24407723    -0.06700
C179        C  0.26853591  0.29791557  0.25086062    -0.17900
C180        C  0.29210440  0.27954573  0.26566471     0.10500
C181        C  0.26868192  0.23040706  0.27160165    -0.06600
C182        C  0.22008227  0.20438720  0.26961293    -0.17900
C183        C  0.19611009  0.22308072  0.25606595     0.10500
S184        S  0.35034486  0.32173330  0.27847444    -0.32900
S185        S  0.13408214  0.18490506  0.25454545    -0.32900
H186        H  0.12658351  0.22004369  0.26470889     0.28500
H187        H  0.34974124  0.29446514  0.30350987     0.28500
H188        H  0.28787009  0.33482702  0.24445760     0.19100
H189        H  0.20034273  0.16830182  0.27773509     0.19100
C190        C  0.22371365  0.49140660  0.22725142    -0.06700
C191        C  0.23559901  0.03061625  0.20853954    -0.17900
C192        C  0.25859624  0.07592203  0.22108448     0.10500
C193        C  0.26870864  0.08241819  0.25332200    -0.06600
C194        C  0.25789927  0.04333214  0.27176624    -0.17900
C195        C  0.23483845  0.49753284  0.25925569     0.10500
S196        S  0.27565007  0.12391394  0.19427665    -0.32900
S197        S  0.22031561  0.44893676  0.28483423    -0.32900
H198        H  0.18162525  0.41443089  0.26797576     0.28500
H199        H  0.31611444  0.15682564  0.21029932     0.28500
H200        H  0.22785952  0.02593891  0.18386281     0.19100
H201        H  0.26554279  0.04803844  0.29644511     0.19100
C202        C  0.41033899  0.21933166  0.25786387    -0.06700
C203        C  0.44370277  0.26748924  0.26203026    -0.17900
C204        C  0.98729957  0.28860851  0.24979626     0.10500
C205        C  0.99913157  0.26132994  0.23196557    -0.06600
C206        C  0.46732806  0.21242505  0.22894709    -0.17900
C207        C  0.42293091  0.19117853  0.24180615     0.10500
S208        S  0.02708231  0.35030622  0.25793421    -0.32900
S209        S  0.38224369  0.12922572  0.23484710    -0.32900
H210        H  0.41372247  0.11889791  0.22247580     0.28500
H211        H  0.06592772  0.34664778  0.26115598     0.28500
H212        H  0.43506265  0.28919661  0.27516076     0.19100
H213        H  0.47610404  0.19128315  0.21534870     0.19100
C214        C  0.15144733  0.07294338  0.43934084    -0.06700
C215        C  0.16150122  0.04297660  0.42358277    -0.17900
C216        C  0.20344924  0.06048505  0.40813595     0.10500
C217        C  0.23768901  0.10934381  0.40920472    -0.06600
C218        C  0.22663606  0.13958883  0.42334826    -0.17900
C219        C  0.18464249  0.12214119  0.43884813     0.10500
S220        S  0.20977593  0.01861242  0.38616249    -0.32900
S221        S  0.17756177  0.16452937  0.45940318    -0.32900
H222        H  0.16136840  0.13756582  0.48678118     0.28500
H223        H  0.23741910  0.05067097  0.36282451     0.28500
H224        H  0.13606761  0.00543651  0.42281430     0.19100
H225        H  0.25167533  0.17703189  0.42372228     0.19100
C226        C  0.42237069  0.33928455  0.44315053    -0.06700
C227        C  0.44688974  0.33196232  0.42028917    -0.17900
C228        C  0.42650831  0.28946407  0.40377839     0.10500
C229        C  0.38091665  0.25247491  0.41082330    -0.06600
C230        C  0.35630536  0.25993739  0.43339772    -0.17900
C231        C  0.37632592  0.30259137  0.44962185     0.10500
S232        S  0.46028145  0.28499328  0.37364957    -0.32900
S233        S  0.34221504  0.30637769  0.47982796    -0.32900
H234        H  0.37916899  0.33057138  0.50095630     0.28500
H235        H  0.42252093  0.25263308  0.35514231     0.28500
H236        H  0.48188721  0.35994906  0.41475040     0.19100
H237        H  0.32225168  0.23139852  0.43990470     0.19100
C238        C  0.42510410  0.05961282  0.42251511    -0.06700
C239        C  0.45192292  0.10582890  0.41105147    -0.17900
C240        C  0.43166091  0.12769739  0.39638596     0.10500
C241        C  0.38272413  0.10457528  0.39555647    -0.06600
C242        C  0.35684666  0.05598290  0.40217520    -0.17900
C243        C  0.37727688  0.03321100  0.41515565     0.10500
S244        S  0.47092182  0.18455141  0.37926156    -0.32900
S245        S  0.33966347  0.47062647  0.42179153    -0.32900
H246        H  0.37102728  0.46008724  0.40940508     0.28500
H247        H  0.44132500  0.18026287  0.35508321     0.28500
H248        H  0.48911928  0.12563045  0.41393191     0.19100
H249        H  0.32009865  0.03520572  0.39756100     0.19100
C250        C  0.25511098  0.39127194  0.58934689    -0.06700
C251        C  0.29189239  0.39801237  0.60805496    -0.17900
C252        C  0.33669416  0.41839385  0.59596973     0.10500
C253        C  0.34487155  0.43131779  0.56417485    -0.06600
C254        C  0.30757084  0.42383747  0.54566738    -0.17900
C255        C  0.26324297  0.40388498  0.55759366     0.10500
S256        S  0.38131640  0.42571678  0.62200909    -0.32900
S257        S  0.21866337  0.39432832  0.53033090    -0.32900
H258        H  0.18241307  0.35366444  0.54448463     0.28500
H259        H  0.40670153  0.97536440  0.61910387     0.28500
H260        H  0.28591727  0.38845398  0.63242074     0.19100
H261        H  0.31273809  0.43333459  0.52128137     0.19100
C262        C  0.07229637  0.15911327  0.56054912    -0.06700
C263        C  0.11882650  0.19294043  0.55427870    -0.17900
C264        C  0.14146556  0.23784779  0.56806010     0.10500
C265        C  0.11666489  0.24968082  0.58810584    -0.06600
C266        C  0.07036838  0.21537057  0.59481746    -0.17900
C267        C  0.04800725  0.17049020  0.58133029     0.10500
S268        S  0.20120006  0.27974023  0.55879068    -0.32900
S269        S  0.48771950  0.13009389  0.59083410    -0.32900
H270        H  0.47448716  0.11043966  0.56091012     0.28500
H271        H  0.20662191  0.25161324  0.53731463     0.28500
H272        H  0.13740475  0.18395572  0.53846630     0.19100
H273        H  0.05106678  0.22405935  0.61020101     0.19100
C274        C  0.06710783  0.43896142  0.58137278    -0.06700
C275        C  0.04076742  0.39266254  0.59238946    -0.17900
C276        C  0.06181151  0.37103468  0.60648146     0.10500
C277        C  0.11094766  0.39528135  0.60765424    -0.06600
C278        C  0.13601310  0.44404189  0.60096307    -0.17900
C279        C  0.11487885  0.46571481  0.58738976     0.10500
S280        S  0.02340536  0.31234025  0.62145121    -0.32900
S281        S  0.15121442  0.02637745  0.57590689    -0.32900
H282        H  0.11695278  0.03722958  0.57712755     0.28500
H283        H  0.05161485  0.31647031  0.64651903     0.28500
H284        H  0.00365383  0.37259404  0.58893702     0.19100
H285        H  0.17269597  0.46577869  0.60541377     0.19100
C286        C  0.40178749  0.31502539  0.90078347    -0.06700
C287        C  0.39373935  0.34894024  0.88883620    -0.17900
C288        C  0.41468035  0.39378357  0.90208956     0.10500
C289        C  0.44457591  0.40527551  0.92779227    -0.06600
C290        C  0.44913158  0.36996369  0.94147624    -0.17900
C291        C  0.42770525  0.32488138  0.92847784     0.10500
S292        S  0.90438582  0.43529240  0.88365752    -0.32900
S293        S  0.43569779  0.28205270  0.94782605    -0.32900
H294        H  0.39273441  0.24269748  0.93877834     0.28500
H295        H  0.89941974  0.45349481  0.91157290     0.28500
H296        H  0.37328314  0.34150042  0.86785695     0.19100
H297        H  0.47183858  0.37848244  0.96137548     0.19100
C298        C  0.19750388  0.08714016  0.89930545    -0.06700
C299        C  0.18627972  0.11421337  0.91745642    -0.17900
C300        C  0.14395987  0.09340557  0.93326047     0.10500
C301        C  0.11071197  0.04444762  0.92955814    -0.06600
C302        C  0.12504910  0.01711868  0.91458160    -0.17900
C303        C  0.16693267  0.03774854  0.89882855     0.10500
S304        S  0.13294698  0.13009356  0.95766738    -0.32900
S305        S  0.17713669  0.99883824  0.87648635    -0.32900
H306        H  0.19135422  0.02715567  0.84965076     0.28500
H307        H  0.17678700  0.17169912  0.95496904     0.28500
H308        H  0.21066632  0.15187678  0.91899838     0.19100
H309        H  0.10370744  0.97930980  0.91399078     0.19100
C310        C  0.42612875  0.10018721  0.89706781    -0.06700
C311        C  0.44909971  0.08712169  0.87679880    -0.17900
C312        C  0.47086729  0.06446151  0.88764352     0.10500
C313        C  0.46996087  0.05487226  0.91980291    -0.06600
C314        C  0.44595213  0.06699498  0.94003391    -0.17900
C315        C  0.42437057  0.08996392  0.92903210     0.10500
S316        S  0.99850643  0.04719570  0.86006057    -0.32900
S317        S  0.39539898  0.10534918  0.95678610    -0.32900
H318        H  0.40006340  0.14376392  0.94021755     0.28500
H319        H  0.98865492  0.06446637  0.83330813     0.28500
H320        H  0.44936779  0.09426216  0.85221457     0.19100
H321        H  0.44509426  0.05968586  0.96464957     0.19100
C322        C  0.23444224  0.27311483  0.72664824    -0.06700
C323        C  0.28274109  0.29948168  0.73184592    -0.17900
C324        C  0.30540213  0.27942928  0.74552791     0.10500
C325        C  0.28013519  0.23121671  0.75303853    -0.06600
C326        C  0.23388475  0.20324455  0.74357513    -0.17900
C327        C  0.21124356  0.22321996  0.72941729     0.10500
S328        S  0.36569163  0.31816846  0.75540992    -0.32900
S329        S  0.15307680  0.18254256  0.71583036    -0.32900
H330        H  0.15462904  0.21055000  0.69107721     0.28500
H331        H  0.37724474  0.28396444  0.75351321     0.28500
H332        H  0.30336189  0.33654613  0.72623071     0.19100
H333        H  0.21480455  0.16569958  0.74815027     0.19100
C334        C  0.50554282  0.24949550  0.77452231    -0.06700
C335        C  0.04257161  0.25663801  0.79322111    -0.17900
C336        C  0.08677006  0.27506866  0.78100425     0.10500
C337        C  0.09428650  0.28422957  0.74879860    -0.06600
C338        C  0.05723838  0.27667405  0.73000119    -0.17900
C339        C  0.51349365  0.26011888  0.74237884     0.10500
S340        S  0.13219832  0.28725275  0.80814615    -0.32900
S341        S  0.46935487  0.25344581  0.71602152    -0.32900
H342        H  0.45041484  0.27038303  0.73715913     0.28500
H343        H  0.16687933  0.32705675  0.79231714     0.28500
H344        H  0.03762678  0.24886763  0.81785384     0.19100
H345        H  0.06271906  0.28419672  0.70535112     0.19100
C346        C  0.23244529  0.42109730  0.74376730    -0.06700
C347        C  0.24689660  0.42665623  0.77486416    -0.17900
C348        C  0.26896930  0.47033974  0.78951734     0.10500
C349        C  0.27634674  0.01121578  0.77280472    -0.06600
C350        C  0.26059333  0.00543682  0.74189746    -0.17900
C351        C  0.23935846  0.46083944  0.72728010     0.10500
S352        S  0.29130685  0.47283135  0.82806100    -0.32900
S353        S  0.22537846  0.45874635  0.68670069    -0.32900
H354        H  0.23981276  0.42815860  0.67846876     0.28500
H355        H  0.33672700  0.01762972  0.82143627     0.28500
H356        H  0.24254813  0.39678374  0.78772141     0.19100
H357        H  0.26477673  0.03539191  0.72923046     0.19100
Zn358      Zn  0.40871266  0.70503442  0.85174099     1.49700
Zn359      Zn  0.31071996  0.69450143  0.84285089     1.49400
Zn360      Zn  0.35262707  0.66393750  0.78719671     1.49100
Zn361      Zn  0.31646387  0.60531256  0.85147836     1.49500
O362        O  0.34743561  0.66759518  0.83281304    -1.84700
O363        O  0.41378864  0.75728908  0.87825280    -0.75400
O364        O  0.29146737  0.71254933  0.80382767    -0.75200
O365        O  0.42125422  0.69923397  0.77433214    -0.74700
O366        O  0.34750207  0.75250691  0.86886430    -0.75400
O367        O  0.45759946  0.73288572  0.81859696    -0.75000
O368        O  0.32103734  0.69347112  0.76487620    -0.75600
O369        O  0.29046809  0.55717124  0.81809186    -0.74900
O370        O  0.25373107  0.65016797  0.86783243    -0.75700
O371        O  0.31993448  0.59477840  0.77356389    -0.75100
O372        O  0.26384807  0.59180982  0.87881266    -0.75600
O373        O  0.35975887  0.59379816  0.87562952    -0.75500
O374        O  0.42447792  0.66461364  0.87713162    -0.75300
C375        C  0.38694389  0.77231385  0.88196843     0.76500
C376        C  0.29818775  0.71074918  0.77495691     0.77000
C377        C  0.45858782  0.72597439  0.78957728     0.76000
C378        C  0.29608259  0.55661737  0.78899514     0.76400
C379        C  0.24085959  0.61126526  0.88129004     0.77500
C380        C  0.40177847  0.62086712  0.88359585     0.76500
C381        C  0.20898745  0.79937627  0.72174380     0.85900
C382        C  0.16239630  0.77760674  0.73870223    -0.54400
C383        C  0.14012680  0.80087092  0.73423770     0.08800
C384        C  0.16697845  0.84484713  0.71352161     0.19800
C385        C  0.19836707  0.80349888  0.68761425    -0.55100
C386        C  0.17630523  0.82719452  0.68288785     0.08900
C387        C  0.23598435  0.85061041  0.73366840    -0.54600
C388        C  0.21452912  0.87456289  0.72933499     0.09500
H389        H  0.14850791  0.74701616  0.75369502     0.14000
H390        H  0.14928091  0.86421206  0.71129313    -0.00300
H391        H  0.20840033  0.78905684  0.66914524     0.14300
H392        H  0.26825834  0.86650501  0.74646169     0.14100
C393        C  0.05965474  0.52285122  0.93834417     0.85900
C394        C  0.04004430  0.55109347  0.92530347    -0.54400
C395        C  0.49535137  0.53379813  0.93300311     0.08800
C396        C  0.47358560  0.98963375  0.95354374     0.19800
C397        C  0.05143057  0.52045222  0.97342245    -0.55100
C398        C  0.50647791  0.00325537  0.98186514     0.08900
C399        C  0.02509419  0.97202659  0.92734404    -0.54600
C400        C  0.48045787  0.95475246  0.93520330     0.09500
H401        H  0.05999894  0.58204118  0.91079234     0.14000
H402        H  0.43703935  0.97555622  0.95929391    -0.00300
H403        H  0.07944761  0.53055917  0.98964288     0.14300
H404        H  0.03327782  0.95061475  0.91361467     0.14100
Zn405      Zn  0.02940331  0.96724995  0.49118646     1.49700
Zn406      Zn  0.49497386  0.50565310  0.54764985     1.49400
Zn407      Zn  0.03066668  0.56242338  0.48251564     1.49100
Zn408      Zn  0.43524856  0.96369008  0.48559696     1.49500
O409        O  0.49805984  0.49975345  0.50199322    -1.84700
O410        O  0.04911211  0.95036733  0.53054050    -0.75400
O411        O  0.02837966  0.57492215  0.56022827    -0.75200
O412        O  0.08752375  0.57508737  0.45985869    -0.74700
O413        O  0.02566352  0.97572915  0.56974298    -0.75400
O414        O  0.08728109  0.50957072  0.46675456    -0.75000
O415        O  0.05318813  0.61305951  0.51518811    -0.75600
O416        O  0.42329371  0.50047127  0.45515693    -0.74900
O417        O  0.42803889  0.97341737  0.56319344    -0.75700
O418        O  0.48925755  0.56934951  0.45217084    -0.75100
O419        O  0.38910511  0.94523089  0.51917129    -0.75600
O420        O  0.42096194  0.90411902  0.46480625    -0.75500
O421        O  0.48684036  0.90651648  0.46743196    -0.75300
C422        C  0.04573711  0.95566569  0.55947369     0.76500
C423        C  0.04983518  0.61312607  0.54464125     0.77000
C424        C  0.10632034  0.55147237  0.45629469     0.76000
C425        C  0.44714578  0.54179816  0.44404420     0.76400
C426        C  0.38982551  0.95094542  0.54839711     0.77500
C427        C  0.44443525  0.88580840  0.45939975     0.76500
C428        C  0.35758186  0.63074244  0.39060705     0.85900
C429        C  0.30894845  0.60674614  0.40486481    -0.54400
C430        C  0.28586528  0.62873242  0.39889061     0.08800
C431        C  0.31514739  0.67525877  0.38073342     0.19800
C432        C  0.35042704  0.63697917  0.35609718    -0.55100
C433        C  0.32850043  0.66058777  0.35045391     0.08900
C434        C  0.38207836  0.68026272  0.40477478    -0.54600
C435        C  0.36086210  0.70409611  0.39917353     0.09500
H436        H  0.29421232  0.57586183  0.41962658     0.14000
H437        H  0.29745194  0.69445870  0.37745659    -0.00300
H438        H  0.36221137  0.62346379  0.33814096     0.14300
H439        H  0.41302655  0.69509988  0.41902683     0.14100
C440        C  0.13662203  0.86967942  0.61261695     0.85900
C441        C  0.11381326  0.82147432  0.59632701    -0.54400
C442        C  0.13580325  0.79799755  0.60082665     0.08800
C443        C  0.18028426  0.82586670  0.62040694     0.19800
C444        C  0.14201448  0.85999598  0.64667539    -0.55100
C445        C  0.16509240  0.83732767  0.65122639     0.08900
C446        C  0.18631456  0.89626076  0.59985441    -0.54600
C447        C  0.20889113  0.87338374  0.60352678     0.09500
H448        H  0.08313577  0.80712579  0.58184875     0.14000
H449        H  0.19881033  0.80737601  0.62284597    -0.00300
H450        H  0.12885512  0.87114843  0.66523870     0.14300
H451        H  0.20216892  0.92908685  0.58708441     0.14100
Zn452      Zn  0.21312900  0.86962117  0.18348641     1.49700
Zn453      Zn  0.15254313  0.82961517  0.12030246     1.49400
Zn454      Zn  0.11745812  0.77119234  0.18449412     1.49100
Zn455      Zn  0.11908325  0.86599878  0.17775312     1.49500
O456        O  0.15051538  0.83411489  0.16622655    -1.84700
O457        O  0.25892860  0.88956781  0.14891070    -0.75400
O458        O  0.12186430  0.76130152  0.10656611    -0.75200
O459        O  0.15856801  0.76233124  0.21354759    -0.74700
O460        O  0.21881048  0.86206254  0.10522063    -0.75400
O461        O  0.22498462  0.83092429  0.21340889    -0.75000
O462        O  0.09798127  0.72251700  0.15119185    -0.75600
O463        O  0.06197653  0.82399704  0.20322476    -0.72200
O464        O  0.12180920  0.86054054  0.09892787    -0.75700
O465        O  0.06075718  0.75763099  0.20819369    -0.75100
O466        O  0.10024530  0.88532078  0.13942395    -0.75600
O467        O  0.16080514  0.92574637  0.20192152    -0.75500
O468        O  0.22655027  0.92789547  0.20636703    -0.75300
C469        C  0.25740742  0.88429757  0.11951251     0.76500
C470        C  0.10283706  0.72287107  0.12189945     0.77000
C471        C  0.20006967  0.78860938  0.22295507     0.76000
C472        C  0.04336220  0.78220570  0.21369506     0.76400
C473        C  0.10317159  0.88147554  0.11026970     0.77500
C474        C  0.20237501  0.94555123  0.21141364     0.76500
C475        C  0.43892351  0.96662762  0.06005732     0.85900
C476        C  0.46664464  0.51688772  0.07191668    -0.54400
C477        C  0.01229611  0.54138265  0.06308818     0.08800
C478        C  0.02539627  0.51281517  0.04275236     0.19800
C479        C  0.44552066  0.97161667  0.02430214    -0.55100
C480        C  0.99110075  0.49573156  0.01506619     0.08900
C481        C  0.46549929  0.94351110  0.06969400    -0.54600
C482        C  0.01038745  0.96737347  0.06136218     0.09500
H483        H  0.45245357  0.53236743  0.08657920     0.14000
H484        H  0.06226675  0.53318058  0.03650506    -0.00300
H485        H  0.41724556  0.95637281  0.00785665     0.14300
H486        H  0.44943831  0.91042744  0.08235530     0.14100
C487        C  0.29243429  0.70317642  0.27806299     0.85900
C488        C  0.26620474  0.65331342  0.26408921    -0.54400
C489        C  0.28651457  0.62845613  0.26892851     0.08800
C490        C  0.33152693  0.65536671  0.28806980     0.19800
C491        C  0.29828656  0.69587492  0.31257945    -0.55100
C492        C  0.31880793  0.67090379  0.31827602     0.08900
C493        C  0.34088988  0.72527889  0.26387382    -0.54600
C494        C  0.36202170  0.70115696  0.26957879     0.09500
H495        H  0.23519055  0.63923379  0.24996876     0.14000
H496        H  0.34784178  0.63495566  0.29167007    -0.00300
H497        H  0.28701211  0.70991586  0.33052938     0.14300
H498        H  0.35667223  0.75612475  0.24906553     0.14100
C499        C  0.30203324  0.90369837  0.10257010    -0.06700
C500        C  0.34183918  0.91898207  0.12062734    -0.17900
C501        C  0.38540243  0.93789776  0.10741339     0.10500
C502        C  0.39045680  0.94163761  0.07448670    -0.06600
C503        C  0.35029334  0.92494440  0.05625416    -0.17900
C504        C  0.30667179  0.90676290  0.06976640     0.10500
S505        S  0.43419709  0.95804083  0.13368150    -0.32900
S506        S  0.25905681  0.88987547  0.04359696    -0.32900
H507        H  0.24486481  0.91678926  0.05912882     0.28500
H508        H  0.41061162  0.94955942  0.16193034     0.28500
H509        H  0.33898958  0.91622185  0.14565611     0.19100
H510        H  0.35231317  0.92727041  0.03124402     0.19100
C511        C  0.04424729  0.58949550  0.07498335    -0.06700
C512        C  0.05852191  0.59405527  0.10597994    -0.17900
C513        C  0.08071498  0.63758879  0.12104430     0.10500
C514        C  0.08594968  0.67750321  0.10554278    -0.06600
C515        C  0.07291249  0.67311278  0.07404233    -0.17900
C516        C  0.05268540  0.62970836  0.05858822     0.10500
S517        S  0.10191368  0.63935774  0.15981881    -0.32900
S518        S  0.03507933  0.62672091  0.01872496    -0.32900
H519        H  0.04899078  0.59610812  0.00963124     0.28500
H520        H  0.14364524  0.68292882  0.15561293     0.28500
H521        H  0.05145500  0.56307015  0.11879777     0.19100
H522        H  0.07717833  0.70325874  0.06159325     0.19100
C523        C  0.08554318  0.90389905  0.08997704    -0.06700
C524        C  0.10623006  0.95273386  0.09288131    -0.17900
C525        C  0.08435510  0.97534232  0.08182611     0.10500
C526        C  0.04015661  0.94822900  0.06786736    -0.06600
C527        C  0.02133369  0.89982408  0.06278211    -0.17900
C528        C  0.04357947  0.87752339  0.07350257     0.10500
S529        S  0.11236138  0.53762762  0.08816912    -0.32900
S530        S  0.01433071  0.81467830  0.06848443    -0.32900
H531        H  0.05466506  0.81471531  0.06288770     0.28500
H532        H  0.15580572  0.54633435  0.09712825     0.28500
H533        H  0.13832718  0.97270274  0.10579094     0.19100
H534        H  0.98800542  0.87873231  0.05142018     0.19100
C535        C  0.22089120  0.76935615  0.24402679    -0.06700
C536        C  0.26836850  0.79760178  0.25105125    -0.17900
C537        C  0.29165350  0.77914512  0.26614963     0.10500
C538        C  0.26810414  0.72998389  0.27204605    -0.06600
C539        C  0.21952654  0.70403462  0.26976723    -0.17900
C540        C  0.19578722  0.72289323  0.25606160     0.10500
S541        S  0.34970801  0.82123408  0.27934385    -0.32900
S542        S  0.13372273  0.68508300  0.25454670    -0.32900
H543        H  0.12653531  0.72060530  0.26431460     0.28500
H544        H  0.34874588  0.79380410  0.30439280     0.28500
H545        H  0.28784805  0.83451059  0.24464471     0.19100
H546        H  0.19963453  0.66793449  0.27784760     0.19100
C547        C  0.22391901  0.99150037  0.22700785    -0.06700
C548        C  0.23584647  0.53068390  0.20882599    -0.17900
C549        C  0.25880925  0.57591431  0.22149342     0.10500
C550        C  0.26848021  0.58217253  0.25379267    -0.06600
C551        C  0.25727800  0.54292752  0.27218729    -0.17900
C552        C  0.23545461  0.99786545  0.25894791     0.10500
S553        S  0.27627674  0.62410103  0.19477814    -0.32900
S554        S  0.22141579  0.94947643  0.28458993    -0.32900
H555        H  0.18246536  0.91486018  0.26798713     0.28500
H556        H  0.31641441  0.65698157  0.21109479     0.28500
H557        H  0.22842688  0.52618072  0.18410620     0.19100
H558        H  0.26458815  0.54745576  0.29691025     0.19100
C559        C  0.40990157  0.71925687  0.25843425    -0.06700
C560        C  0.44313123  0.76748167  0.26251075    -0.17900
C561        C  0.98802710  0.78837361  0.24953104     0.10500
C562        C  0.99968834  0.76103798  0.23160687    -0.06600
C563        C  0.46699883  0.71259693  0.22946292    -0.17900
C564        C  0.42258661  0.69121954  0.24232463     0.10500
S565        S  0.02808584  0.84993699  0.25791769    -0.32900
S566        S  0.38201380  0.62920440  0.23544071    -0.32900
H567        H  0.41241262  0.61973495  0.22029531     0.28500
H568        H  0.06673509  0.84592939  0.26107257     0.28500
H569        H  0.43439667  0.78912869  0.27562405     0.19100
H570        H  0.47594744  0.69151391  0.21596237     0.19100
C571        C  0.15129576  0.57283599  0.43985711    -0.06700
C572        C  0.16150850  0.54278375  0.42438304    -0.17900
C573        C  0.20349733  0.56023256  0.40901851     0.10500
C574        C  0.23759202  0.60914558  0.40985658    -0.06600
C575        C  0.22638981  0.63943831  0.42373627    -0.17900
C576        C  0.18439034  0.62204750  0.43918943     0.10500
S577        S  0.21000879  0.51817621  0.38742913    -0.32900
S578        S  0.17720116  0.66457789  0.45945230    -0.32900
H579        H  0.16130679  0.63798966  0.48699571     0.28500
H580        H  0.23748068  0.54993279  0.36391007     0.28500
H581        H  0.13617020  0.50521487  0.42376736     0.19100
H582        H  0.25129667  0.67689286  0.42393234     0.19100
C583        C  0.42176770  0.83952626  0.44345407    -0.06700
C584        C  0.44651900  0.83202390  0.42088366    -0.17900
C585        C  0.42624675  0.78950281  0.40442745     0.10500
C586        C  0.38056016  0.75258420  0.41130355    -0.06600
C587        C  0.35567599  0.76024405  0.43355193    -0.17900
C588        C  0.37554287  0.80300133  0.44964835     0.10500
S589        S  0.46025580  0.78497645  0.37451361    -0.32900
S590        S  0.34091690  0.80715130  0.47929152    -0.32900
H591        H  0.37739497  0.83107250  0.50079106     0.28500
H592        H  0.42262274  0.75276734  0.35585438     0.28500
H593        H  0.48162363  0.85991182  0.41550277     0.19100
H594        H  0.32150531  0.73182615  0.43989665     0.19100
C595        C  0.42503611  0.55944370  0.42284844    -0.06700
C596        C  0.45188114  0.60585314  0.41172173    -0.17900
C597        C  0.43170108  0.62792100  0.39723648     0.10500
C598        C  0.38277283  0.60477163  0.39622909    -0.06600
C599        C  0.35687516  0.55607526  0.40256327    -0.17900
C600        C  0.37724998  0.53313204  0.41537855     0.10500
S601        S  0.47108850  0.68497321  0.38042656    -0.32900
S602        S  0.33966590  0.97081252  0.42197104    -0.32900
H603        H  0.37085230  0.96002212  0.40959106     0.28500
H604        H  0.44157524  0.68097546  0.35626953     0.28500
H605        H  0.48906094  0.62564805  0.41469976     0.19100
H606        H  0.32015285  0.53535054  0.39784140     0.19100
C607        C  0.25474128  0.89131047  0.58932897    -0.06700
C608        C  0.29152058  0.89807579  0.60804196    -0.17900
C609        C  0.33635460  0.91861886  0.59599590     0.10500
C610        C  0.34458174  0.93169695  0.56422705    -0.06600
C611        C  0.30728102  0.92422140  0.54571237    -0.17900
C612        C  0.26290872  0.90408584  0.55760203     0.10500
S613        S  0.38095420  0.92597906  0.62207093    -0.32900
S614        S  0.21832621  0.89449525  0.53032644    -0.32900
H615        H  0.18209094  0.85378337  0.54445359     0.28500
H616        H  0.40709530  0.47510109  0.61903997     0.28500
H617        H  0.28551674  0.88841731  0.63239146     0.19100
H618        H  0.31247135  0.93382716  0.52134493     0.19100
C619        C  0.07191858  0.65903356  0.56081623    -0.06700
C620        C  0.11842378  0.69286303  0.55448976    -0.17900
C621        C  0.14107428  0.73776689  0.56825197     0.10500
C622        C  0.11632799  0.74955087  0.58837765    -0.06600
C623        C  0.07005662  0.71523415  0.59515418    -0.17900
C624        C  0.04766161  0.67037555  0.58164611     0.10500
S625        S  0.20072598  0.77974248  0.55882202    -0.32900
S626        S  0.48780374  0.63037813  0.59019775    -0.32900
H627        H  0.47476878  0.61060538  0.56029484     0.28500
H628        H  0.20603211  0.75170310  0.53720069     0.28500
H629        H  0.13696371  0.68389469  0.53862900     0.19100
H630        H  0.05079294  0.72391678  0.61058002     0.19100
C631        C  0.06690952  0.93869001  0.58120765    -0.06700
C632        C  0.04046374  0.89243450  0.59228625    -0.17900
C633        C  0.06140912  0.87081481  0.60652803     0.10500
C634        C  0.11054223  0.89507444  0.60782673    -0.06600
C635        C  0.13564852  0.94383169  0.60114612    -0.17900
C636        C  0.11463164  0.96545568  0.58735378     0.10500
S637        S  0.02288340  0.81216713  0.62154914    -0.32900
S638        S  0.15135644  0.52672848  0.57611387    -0.32900
H639        H  0.11699475  0.53743854  0.57734035     0.28500
H640        H  0.05145497  0.81577507  0.64622326     0.28500
H641        H  0.00336503  0.87239270  0.58875690     0.19100
H642        H  0.17230311  0.96556959  0.60571240     0.19100
C643        C  0.40257025  0.81514260  0.90062022    -0.06700
C644        C  0.39358608  0.84862190  0.88910404    -0.17900
C645        C  0.41424518  0.89340047  0.90243171     0.10500
C646        C  0.44473551  0.90525096  0.92781587    -0.06600
C647        C  0.45028219  0.87033508  0.94109482    -0.17900
C648        C  0.42929135  0.82538012  0.92797045     0.10500
S649        S  0.90573797  0.93601406  0.88320222    -0.32900
S650        S  0.43899715  0.78330245  0.94668737    -0.32900
H651        H  0.39589208  0.74349089  0.93840274     0.28500
H652        H  0.90049494  0.95430596  0.91098600     0.28500
H653        H  0.37257256  0.84092141  0.86838065     0.19100
H654        H  0.47353695  0.87915943  0.96070874     0.19100
C655        C  0.19752614  0.58739479  0.89929820    -0.06700
C656        C  0.18640242  0.61431188  0.91769489    -0.17900
C657        C  0.14390898  0.59342654  0.93327024     0.10500
C658        C  0.11053956  0.54458447  0.92917381    -0.06600
C659        C  0.12473741  0.51735716  0.91388479    -0.17900
C660        C  0.16668305  0.53810000  0.89824942     0.10500
S661        S  0.13283583  0.62990455  0.95785180    -0.32900
S662        S  0.17657422  0.49951594  0.87523706    -0.32900
H663        H  0.19149476  0.52874938  0.84882843     0.28500
H664        H  0.17699651  0.67124047  0.95581592     0.28500
H665        H  0.21096058  0.65189536  0.91956855     0.19100
H666        H  0.10331332  0.47963539  0.91290767     0.19100
C667        C  0.42596411  0.59999224  0.89762559    -0.06700
C668        C  0.44943753  0.58757699  0.87733990    -0.17900
C669        C  0.47137638  0.56505264  0.88808210     0.10500
C670        C  0.47011823  0.55491675  0.92017417    -0.06600
C671        C  0.44567352  0.56646370  0.94043407    -0.17900
C672        C  0.42392279  0.58931061  0.92952566     0.10500
S673        S  0.99761111  0.54618275  0.85982450    -0.32900
S674        S  0.39445380  0.60403069  0.95730551    -0.32900
H675        H  0.39923722  0.64267495  0.94096799     0.28500
H676        H  0.98407214  0.55942225  0.83279578     0.28500
H677        H  0.44988268  0.59503852  0.85279716     0.19100
H678        H  0.44457735  0.55877680  0.96500280     0.19100
C679        C  0.23419704  0.77297992  0.72686349    -0.06700
C680        C  0.28252599  0.79904321  0.73194520    -0.17900
C681        C  0.30500472  0.77874371  0.74556383     0.10500
C682        C  0.27952923  0.73058502  0.75320516    -0.06600
C683        C  0.23315787  0.70286399  0.74392908    -0.17900
C684        C  0.21069591  0.72306951  0.72978341     0.10500
S685        S  0.36543429  0.81710102  0.75517729    -0.32900
S686        S  0.15236195  0.68265513  0.71638095    -0.32900
H687        H  0.15397241  0.71061927  0.69158039     0.28500
H688        H  0.37661545  0.78267421  0.75261811     0.28500
H689        H  0.30335868  0.83605504  0.72622566     0.19100
H690        H  0.21386737  0.66534668  0.74861160     0.19100
C691        C  0.50486546  0.74783703  0.77442066    -0.06700
C692        C  0.04333489  0.75895465  0.79344470    -0.17900
C693        C  0.08750353  0.77717882  0.78122181     0.10500
C694        C  0.09488913  0.78564049  0.74895818    -0.06600
C695        C  0.05777659  0.77767575  0.73007116    -0.17900
C696        C  0.51290915  0.75911362  0.74237132     0.10500
S697        S  0.13305795  0.78983326  0.80837845    -0.32900
S698        S  0.46889597  0.75321658  0.71621696    -0.32900
H699        H  0.45009746  0.76988991  0.73767591     0.28500
H700        H  0.16775364  0.82924582  0.79223603     0.28500
H701        H  0.03848649  0.75166778  0.81813578     0.19100
H702        H  0.06317979  0.78469032  0.70536395     0.19100
C703        C  0.23370202  0.92198164  0.74341275    -0.06700
C704        C  0.24891820  0.92794259  0.77435058    -0.17900
C705        C  0.27113963  0.97176782  0.78880854     0.10500
C706        C  0.27498746  0.51011608  0.77345974    -0.06600
C707        C  0.25983802  0.50466004  0.74241035    -0.17900
C708        C  0.24007832  0.96150463  0.72689930     0.10500
S709        S  0.29468327  0.97493141  0.82703716    -0.32900
S710        S  0.22532438  0.95900191  0.68644354    -0.32900
H711        H  0.23978992  0.92848720  0.67807732     0.28500
H712        H  0.33401590  0.51493114  0.82273404     0.28500
H713        H  0.24495736  0.89826595  0.78724876     0.19100
H714        H  0.26454582  0.53481245  0.72971053     0.19100
Zn715      Zn  0.90871255  0.20505591  0.85174078     1.49700
Zn716      Zn  0.81068254  0.19444194  0.84285654     1.49400
Zn717      Zn  0.85267125  0.16396576  0.78719328     1.49100
Zn718      Zn  0.81646587  0.10529952  0.85143135     1.49500
O719        O  0.84744353  0.16759709  0.83280206    -1.84700
O720        O  0.91374264  0.25730543  0.87824848    -0.75400
O721        O  0.79132924  0.21238653  0.80384405    -0.75200
O722        O  0.92131085  0.19925095  0.77435317    -0.74700
O723        O  0.84746785  0.25251847  0.86878551    -0.75400
O724        O  0.95763700  0.23293259  0.81861637    -0.75000
O725        O  0.82109111  0.19352138  0.76489669    -0.75600
O726        O  0.79040064  0.05718395  0.81803833    -0.74900
O727        O  0.75378361  0.15014360  0.86792583    -0.75700
O728        O  0.81997942  0.09481033  0.77353334    -0.75100
O729        O  0.76391622  0.09178272  0.87885314    -0.75600
O730        O  0.85980863  0.09376126  0.87547376    -0.75500
O731        O  0.92448077  0.16461136  0.87710471    -0.75300
C732        C  0.88689447  0.27234047  0.88190805     0.76500
C733        C  0.79813940  0.21068559  0.77497779     0.77000
C734        C  0.95863967  0.22599318  0.78960276     0.76000
C735        C  0.79607062  0.05664238  0.78894916     0.76400
C736        C  0.74094240  0.11124794  0.88138208     0.77500
C737        C  0.90180768  0.12083418  0.88348152     0.76500
C738        C  0.70896766  0.29929389  0.72170219     0.85900
C739        C  0.66233454  0.27748871  0.73861124    -0.54400
C740        C  0.64008580  0.30077543  0.73415083     0.08800
C741        C  0.66699715  0.34480351  0.71348629     0.19800
C742        C  0.69842845  0.30350153  0.68756722    -0.55100
C743        C  0.67637779  0.32721030  0.68284662     0.08900
C744        C  0.73594246  0.35049423  0.73368465    -0.54600
C745        C  0.71451834  0.37447123  0.72934636     0.09500
H746        H  0.64841042  0.24686976  0.75358067     0.14000
H747        H  0.64932113  0.36419035  0.71126506    -0.00300
H748        H  0.70848811  0.28909215  0.66909214     0.14300
H749        H  0.76819003  0.36635549  0.74650696     0.14100
C750        C  0.55973367  0.02287204  0.93841014     0.85900
C751        C  0.54011393  0.05106721  0.92529172    -0.54400
C752        C  0.99532305  0.03374480  0.93294920     0.08800
C753        C  0.97352260  0.48960215  0.95352355     0.19800
C754        C  0.55148378  0.02055801  0.97348053    -0.55100
C755        C  0.00643255  0.50314587  0.98182855     0.08900
C756        C  0.52509043  0.47206260  0.92732521    -0.54600
C757        C  0.98036623  0.45476216  0.93511542     0.09500
H758        H  0.56007572  0.08198856  0.91075935     0.14000
H759        H  0.93697760  0.47551938  0.95928435    -0.00300
H760        H  0.57949827  0.03070765  0.98971082     0.14300
H761        H  0.53327973  0.45067416  0.91356881     0.14100
Zn762      Zn  0.52944554  0.46720002  0.49127755     1.49700
Zn763      Zn  0.99497360  0.00565383  0.54762843     1.49400
Zn764      Zn  0.53058133  0.06245960  0.48248217     1.49100
Zn765      Zn  0.93528135  0.46370305  0.48558372     1.49500
O766        O  0.99802008  0.99977721  0.50196605    -1.84700
O767        O  0.54910513  0.45034133  0.53066416    -0.75400
O768        O  0.52849505  0.07493990  0.56020470    -0.75200
O769        O  0.58740108  0.07515539  0.45975536    -0.74700
O770        O  0.52567506  0.47578524  0.56982624    -0.75400
O771        O  0.58727162  0.00971343  0.46673084    -0.75000
O772        O  0.55320507  0.11309713  0.51516299    -0.75600
O773        O  0.92321789  0.00041433  0.45514463    -0.74900
O774        O  0.92800711  0.47333351  0.56317752    -0.75700
O775        O  0.98913152  0.06934469  0.45219265    -0.75100
O776        O  0.88910883  0.44523999  0.51913148    -0.75600
O777        O  0.92096052  0.40412326  0.46478161    -0.75500
O778        O  0.98679147  0.40643568  0.46748203    -0.75300
C779        C  0.54573235  0.45568774  0.55958979     0.76500
C780        C  0.54993392  0.11314925  0.54462322     0.77000
C781        C  0.60624841  0.05158361  0.45622425     0.76000
C782        C  0.94703411  0.04175327  0.44405016     0.76400
C783        C  0.88980878  0.45090557  0.54836073     0.77500
C784        C  0.94440487  0.38576972  0.45941193     0.76500
C785        C  0.85748677  0.13069484  0.39059946     0.85900
C786        C  0.80887763  0.10677719  0.40488218    -0.54400
C787        C  0.78582143  0.12878482  0.39888280     0.08800
C788        C  0.81512771  0.17527850  0.38069523     0.19800
C789        C  0.85030603  0.13688074  0.35608475    -0.55100
C790        C  0.82842982  0.16053430  0.35042431     0.08900
C791        C  0.88204322  0.18023908  0.40473048    -0.54600
C792        C  0.86086217  0.20410553  0.39911909     0.09500
H793        H  0.79413749  0.07592747  0.41967597     0.14000
H794        H  0.79746859  0.19451180  0.37740546    -0.00300
H795        H  0.86202798  0.12329080  0.33813692     0.14300
H796        H  0.91299632  0.19505925  0.41897674     0.14100
C797        C  0.63658275  0.36963042  0.61261057     0.85900
C798        C  0.61378485  0.32141294  0.59633391    -0.54400
C799        C  0.63583513  0.29799007  0.60081141     0.08800
C800        C  0.68033542  0.32590515  0.62036124     0.19800
C801        C  0.64204847  0.35998929  0.64666060    -0.55100
C802        C  0.66516608  0.33736088  0.65119210     0.08900
C803        C  0.68625104  0.39624273  0.59980499    -0.54600
C804        C  0.70887330  0.37340714  0.60345602     0.09500
H805        H  0.58308158  0.30702129  0.58187845     0.14000
H806        H  0.69889524  0.30744603  0.62278734    -0.00300
H807        H  0.62888083  0.37111933  0.66523172     0.14300
H808        H  0.70205386  0.42907106  0.58703992     0.14100
Zn809      Zn  0.71309802  0.36953410  0.18346267     1.49700
Zn810      Zn  0.65253421  0.32967492  0.12028473     1.49400
Zn811      Zn  0.61737808  0.27120357  0.18448049     1.49100
Zn812      Zn  0.61908342  0.36602173  0.17774226     1.49500
O813        O  0.65049081  0.33411973  0.16620833    -1.84700
O814        O  0.75891252  0.38939450  0.14889742    -0.75400
O815        O  0.62187623  0.26137591  0.10655528    -0.75200
O816        O  0.65839316  0.26223442  0.21355616    -0.74700
O817        O  0.71880156  0.36213037  0.10518658    -0.75400
O818        O  0.72484270  0.33079172  0.21342843    -0.75000
O819        O  0.59792527  0.22257640  0.15117538    -0.75600
O820        O  0.56199774  0.32408681  0.20324609    -0.72200
O821        O  0.62176252  0.36057723  0.09892954    -0.75700
O822        O  0.56067510  0.25766206  0.20814860    -0.75100
O823        O  0.60019441  0.38531674  0.13944344    -0.75600
O824        O  0.66086474  0.42579011  0.20183799    -0.75500
O825        O  0.72658387  0.42787732  0.20627095    -0.75300
C826        C  0.75739584  0.38423719  0.11948886     0.76500
C827        C  0.60282710  0.22294542  0.12188887     0.77000
C828        C  0.69989346  0.28847645  0.22297132     0.76000
C829        C  0.54333203  0.28227343  0.21368326     0.76400
C830        C  0.60310795  0.38148461  0.11028861     0.77500
C831        C  0.70244504  0.44558008  0.21129984     0.76500
C832        C  0.93890769  0.46652948  0.06002344     0.85900
C833        C  0.96677521  0.01694281  0.07193575    -0.54400
C834        C  0.51232411  0.04145671  0.06314400     0.08800
C835        C  0.52540991  0.01290146  0.04278731     0.19800
C836        C  0.94549954  0.47146790  0.02427036    -0.55100
C837        C  0.49112394  0.99586395  0.01509995     0.08900
C838        C  0.96550119  0.44344188  0.06969264    -0.54600
C839        C  0.51021997  0.46728081  0.06137607     0.09500
H840        H  0.95258415  0.03241579  0.08660467     0.14000
H841        H  0.56227405  0.03327203  0.03653795    -0.00300
H842        H  0.91722029  0.45618300  0.00782841     0.14300
H843        H  0.94946176  0.41037588  0.08237368     0.14100
C844        C  0.79231858  0.20303720  0.27801062     0.85900
C845        C  0.76614671  0.15317623  0.26403658    -0.54400
C846        C  0.78650705  0.12836981  0.26888337     0.08800
C847        C  0.83150467  0.15532054  0.28803619     0.19800
C848        C  0.79816968  0.19574877  0.31252879    -0.55100
C849        C  0.81873958  0.17082863  0.31823740     0.08900
C850        C  0.84078590  0.22519072  0.26382886    -0.54600
C851        C  0.86196320  0.20111305  0.26953953     0.09500
H852        H  0.73514472  0.13906627  0.24990009     0.14000
H853        H  0.84786229  0.13495221  0.29164686    -0.00300
H854        H  0.78684532  0.20975144  0.33047185     0.14300
H855        H  0.85653521  0.25603022  0.24901460     0.14100
C856        C  0.80202103  0.40365192  0.10254160    -0.06700
C857        C  0.84182301  0.41888050  0.12058945    -0.17900
C858        C  0.88539235  0.43792113  0.10737017     0.10500
C859        C  0.89043954  0.44156205  0.07444598    -0.06600
C860        C  0.85027954  0.42492266  0.05621716    -0.17900
C861        C  0.80667271  0.40682364  0.06973803     0.10500
S862        S  0.93413819  0.45811547  0.13366740    -0.32900
S863        S  0.75910533  0.39021912  0.04358524    -0.32900
H864        H  0.74502000  0.41714135  0.05922936     0.28500
H865        H  0.91149300  0.45519655  0.16150723     0.28500
H866        H  0.83898581  0.41589727  0.14561735     0.19100
H867        H  0.85230131  0.42728151  0.03120815     0.19100
C868        C  0.54428662  0.08957481  0.07501526    -0.06700
C869        C  0.55862782  0.09416340  0.10599663    -0.17900
C870        C  0.58079404  0.13770308  0.12105125     0.10500
C871        C  0.58597323  0.17758853  0.10554289    -0.06600
C872        C  0.57291121  0.17317785  0.07404957    -0.17900
C873        C  0.55268513  0.12976651  0.05861140     0.10500
S874        S  0.60202088  0.13951938  0.15982476    -0.32900
S875        S  0.53504511  0.12674475  0.01875450    -0.32900
H876        H  0.54906504  0.09622239  0.00965632     0.28500
H877        H  0.64371446  0.18312561  0.15561657     0.28500
H878        H  0.55162638  0.06319709  0.11880947     0.19100
H879        H  0.57714815  0.20330904  0.06159703     0.19100
C880        C  0.58543729  0.40388610  0.09001883    -0.06700
C881        C  0.60607136  0.45270925  0.09294866    -0.17900
C882        C  0.58416743  0.47528337  0.08189263     0.10500
C883        C  0.53998152  0.44814625  0.06792244    -0.06600
C884        C  0.52118919  0.39974704  0.06283698    -0.17900
C885        C  0.54347812  0.37748445  0.07354477     0.10500
S886        S  0.61259661  0.03767381  0.08791561    -0.32900
S887        S  0.51430911  0.31465213  0.06850099    -0.32900
H888        H  0.55468076  0.31480138  0.06280473     0.28500
H889        H  0.65645160  0.04647214  0.09574759     0.28500
H890        H  0.63815075  0.47269909  0.10587613     0.19100
H891        H  0.48786734  0.37863623  0.05146990     0.19100
C892        C  0.72068894  0.26918022  0.24403203    -0.06700
C893        C  0.76814795  0.29744146  0.25110447    -0.17900
C894        C  0.79145181  0.27897476  0.26616187     0.10500
C895        C  0.76793960  0.22979667  0.27198807    -0.06600
C896        C  0.71936352  0.20380435  0.26966052    -0.17900
C897        C  0.69560620  0.22266312  0.25598034     0.10500
S898        S  0.84950247  0.32106810  0.27935937    -0.32900
S899        S  0.63355297  0.18477479  0.25437166    -0.32900
H900        H  0.62625978  0.22019274  0.26421566     0.28500
H901        H  0.84856005  0.29362405  0.30439120     0.28500
H902        H  0.78760698  0.33437401  0.24475600     0.19100
H903        H  0.69948509  0.16767715  0.27768941     0.19100
C904        C  0.72401292  0.49152219  0.22689336    -0.06700
C905        C  0.73593553  0.03065625  0.20874849    -0.17900
C906        C  0.75889921  0.07587919  0.22142663     0.10500
C907        C  0.76854189  0.08211414  0.25373052    -0.06600
C908        C  0.75733515  0.04286155  0.27211640    -0.17900
C909        C  0.73563088  0.49785472  0.25881648     0.10500
S910        S  0.77638640  0.12408402  0.19472273    -0.32900
S911        S  0.72167091  0.44942925  0.28439874    -0.32900
H912        H  0.68252290  0.41491164  0.26790225     0.28500
H913        H  0.81648601  0.15697171  0.21106882     0.28500
H914        H  0.72852822  0.02616536  0.18402703     0.19100
H915        H  0.76462643  0.04737361  0.29684186     0.19100
C916        C  0.90983617  0.21923238  0.25836939    -0.06700
C917        C  0.94303932  0.26747044  0.26241400    -0.17900
C918        C  0.48800236  0.28845760  0.24951695     0.10500
C919        C  0.49966088  0.26111830  0.23159443    -0.06600
C920        C  0.96694775  0.21259158  0.22939861    -0.17900
C921        C  0.92253225  0.19120325  0.24225636     0.10500
S922        S  0.52805622  0.35002508  0.25789456    -0.32900
S923        S  0.88199590  0.12916380  0.23542218    -0.32900
H924        H  0.91199105  0.11998117  0.21941936     0.28500
H925        H  0.56670072  0.34601398  0.26107355     0.28500
H926        H  0.93429119  0.28911708  0.27551467     0.19100
H927        H  0.97593775  0.19150854  0.21593809     0.19100
C928        C  0.65121334  0.07294962  0.43977469    -0.06700
C929        C  0.66146501  0.04287304  0.42437990    -0.17900
C930        C  0.70346168  0.06029582  0.40903856     0.10500
C931        C  0.73753733  0.10921823  0.40982241    -0.06600
C932        C  0.72628964  0.13953607  0.42360958    -0.17900
C933        C  0.68427205  0.12216811  0.43903662     0.10500
S934        S  0.70999893  0.01817854  0.38754894    -0.32900
S935        S  0.67701079  0.16473891  0.45917580    -0.32900
H936        H  0.66116853  0.13827817  0.48677167     0.28500
H937        H  0.73744082  0.04985476  0.36398674     0.28500
H938        H  0.63615101  0.00529580  0.42381254     0.19100
H939        H  0.75117412  0.17700105  0.42375481     0.19100
C940        C  0.92174066  0.33949919  0.44345090    -0.06700
C941        C  0.94656018  0.33197280  0.42094987    -0.17900
C942        C  0.92631310  0.28947197  0.40447497     0.10500
C943        C  0.88057375  0.25258927  0.41126350    -0.06600
C944        C  0.85562202  0.26027407  0.43344163    -0.17900
C945        C  0.87546659  0.30301393  0.44955658     0.10500
S946        S  0.96042267  0.28493701  0.37464378    -0.32900
S947        S  0.84073908  0.30718826  0.47910752    -0.32900
H948        H  0.87712220  0.33103184  0.50068257     0.28500
H949        H  0.92285350  0.25277666  0.35592025     0.28500
H950        H  0.98170491  0.35983169  0.41563447     0.19100
H951        H  0.82139967  0.23187999  0.43971975     0.19100
C952        C  0.92489809  0.05936403  0.42285540    -0.06700
C953        C  0.95174561  0.10573747  0.41167151    -0.17900
C954        C  0.93156220  0.12779627  0.39718285     0.10500
C955        C  0.88263670  0.10468851  0.39623749    -0.06600
C956        C  0.85671621  0.05601093  0.40263681    -0.17900
C957        C  0.87709288  0.03306525  0.41544417     0.10500
S958        S  0.97094341  0.18479046  0.38029915    -0.32900
S959        S  0.84003191  0.47083172  0.42157495    -0.32900
H960        H  0.87146729  0.46029111  0.40932251     0.28500
H961        H  0.94140578  0.18074259  0.35614552     0.28500
H962        H  0.98893278  0.12551008  0.41460341     0.19100
H963        H  0.81998096  0.03530022  0.39796187     0.19100
C964        C  0.75472669  0.39136500  0.58925482    -0.06700
C965        C  0.79144268  0.39791106  0.60794221    -0.17900
C966        C  0.83626887  0.41838903  0.59590340     0.10500
C967        C  0.84456242  0.43167269  0.56417315    -0.06600
C968        C  0.80732635  0.42441062  0.54567635    -0.17900
C969        C  0.76294635  0.40428840  0.55755166     0.10500
S970        S  0.88075737  0.42532920  0.62191879    -0.32900
S971        S  0.71841260  0.39483648  0.53027729    -0.32900
H972        H  0.68215617  0.35405751  0.54433480     0.28500
H973        H  0.90709404  0.97531036  0.61900347     0.28500
H974        H  0.78539128  0.38809786  0.63226569     0.19100
H975        H  0.81257079  0.43414950  0.52133150     0.19100
C976        C  0.57204688  0.15904191  0.56081598    -0.06700
C977        C  0.61851518  0.19292570  0.55442465    -0.17900
C978        C  0.64114806  0.23783008  0.56818781     0.10500
C979        C  0.61641184  0.24955299  0.58837050    -0.06600
C980        C  0.57019591  0.21517338  0.59522719    -0.17900
C981        C  0.54782284  0.17031856  0.58172095     0.10500
S982        S  0.70073497  0.27990917  0.55865586    -0.32900
S983        S  0.98785984  0.13033371  0.59035578    -0.32900
H984        H  0.97474338  0.11048715  0.56047688     0.28500
H985        H  0.70635010  0.25154040  0.53751377     0.28500
H986        H  0.63702363  0.18401444  0.53849346     0.19100
H987        H  0.55094952  0.22380897  0.61070518     0.19100
C988        C  0.56686254  0.43869597  0.58134864    -0.06700
C989        C  0.54041100  0.39239788  0.59235410    -0.17900
C990        C  0.56134671  0.37073911  0.60655343     0.10500
C991        C  0.61047793  0.39500591  0.60786913    -0.06600
C992        C  0.63557895  0.44379286  0.60128890    -0.17900
C993        C  0.61457143  0.46546078  0.58754734     0.10500
S994        S  0.52281198  0.31206240  0.62152870    -0.32900
S995        S  0.65136766  0.02674794  0.57601059    -0.32900
H996        H  0.61702130  0.03747214  0.57734984     0.28500
H997        H  0.55145791  0.31553249  0.64611150     0.28500
H998        H  0.50331818  0.37235572  0.58879572     0.19100
H999        H  0.67222846  0.46551485  0.60588450     0.19100
C1000       C  0.90248861  0.31518467  0.90052750    -0.06700
C1001       C  0.89361527  0.34870535  0.88893394    -0.17900
C1002       C  0.91423183  0.39346984  0.90227602     0.10500
C1003       C  0.94462265  0.40528141  0.92771527    -0.06600
C1004       C  0.95004767  0.37032885  0.94106281    -0.17900
C1005       C  0.92903549  0.32536332  0.92795477     0.10500
S1006       S  0.40587617  0.43604979  0.88306267    -0.32900
S1007       S  0.93843725  0.28316662  0.94681071    -0.32900
H1008       H  0.89533987  0.24343609  0.93841288     0.28500
H1009       H  0.40078065  0.45453311  0.91080642     0.28500
H1010       H  0.87269597  0.34103108  0.86816435     0.19100
H1011       H  0.97320107  0.37911797  0.96073335     0.19100
C1012       C  0.69764041  0.08738512  0.89942698    -0.06700
C1013       C  0.68652608  0.11430507  0.91782945    -0.17900
C1014       C  0.64400346  0.09343842  0.93336844     0.10500
C1015       C  0.61063161  0.04459323  0.92927429    -0.06600
C1016       C  0.62484035  0.01736232  0.91400450    -0.17900
C1017       C  0.66677354  0.03809546  0.89835932     0.10500
S1018       S  0.63287662  0.12994173  0.95788331    -0.32900
S1019       S  0.67658566  0.99952796  0.87526380    -0.32900
H1020       H  0.69144368  0.02880000  0.84887362     0.28500
H1021       H  0.67687216  0.17144040  0.95558364     0.28500
H1022       H  0.71110310  0.15188625  0.91971313     0.19100
H1023       H  0.60340565  0.97962858  0.91301883     0.19100
C1024       C  0.92597945  0.09994651  0.89750880    -0.06700
C1025       C  0.94941578  0.08747397  0.87723015    -0.17900
C1026       C  0.97133828  0.06493969  0.88799101     0.10500
C1027       C  0.97006974  0.05482430  0.92008953    -0.06600
C1028       C  0.94564884  0.06641616  0.94033581    -0.17900
C1029       C  0.92392888  0.08928361  0.92941201     0.10500
S1030       S  0.49757739  0.04608177  0.85979463    -0.32900
S1031       S  0.89445318  0.10401657  0.95717995    -0.32900
H1032       H  0.89907321  0.14255287  0.94079740     0.28500
H1033       H  0.48457980  0.05990341  0.83278147     0.28500
H1034       H  0.94982348  0.09487573  0.85268016     0.19100
H1035       H  0.94455007  0.05875079  0.96490826     0.19100
C1036       C  0.73417726  0.27290109  0.72682796    -0.06700
C1037       C  0.78249946  0.29897289  0.73193797    -0.17900
C1038       C  0.80496411  0.27868811  0.74559642     0.10500
C1039       C  0.77948583  0.23052675  0.75323144    -0.06600
C1040       C  0.73312620  0.20279702  0.74393077    -0.17900
C1041       C  0.71067961  0.22299440  0.72975246     0.10500
S1042       S  0.86536516  0.31707571  0.75528061    -0.32900
S1043       S  0.65238694  0.18257958  0.71628109    -0.32900
H1044       H  0.65407825  0.21056767  0.69146821     0.28500
H1045       H  0.87660126  0.28268867  0.75274510     0.28500
H1046       H  0.80333296  0.33598539  0.72621824     0.19100
H1047       H  0.71383781  0.16527839  0.74860808     0.19100
C1048       C  0.00492453  0.24781043  0.77446027    -0.06700
C1049       C  0.54331233  0.25888824  0.79336207    -0.17900
C1050       C  0.58746970  0.27709570  0.78112953     0.10500
C1051       C  0.59484464  0.28554880  0.74886541    -0.06600
C1052       C  0.55772699  0.27758928  0.72998391    -0.17900
C1053       C  0.01298629  0.25905143  0.74240803     0.10500
S1054       S  0.63303054  0.28974849  0.80827793    -0.32900
S1055       S  0.96898792  0.25310670  0.71621965    -0.32900
H1056       H  0.95018650  0.26983237  0.73763555     0.28500
H1057       H  0.66770729  0.32917880  0.79214074     0.28500
H1058       H  0.53847513  0.25160791  0.81805413     0.19100
H1059       H  0.56312215  0.28459910  0.70527591     0.19100
C1060       C  0.73373517  0.42190077  0.74341586    -0.06700
C1061       C  0.74889955  0.42784729  0.77436551    -0.17900
C1062       C  0.77119355  0.47168721  0.78880853     0.10500
C1063       C  0.77499068  0.01014240  0.77341361    -0.06600
C1064       C  0.75987103  0.00468341  0.74235779    -0.17900
C1065       C  0.74026788  0.46145999  0.72686781     0.10500
S1066       S  0.79469498  0.47482203  0.82704810    -0.32900
S1067       S  0.72565603  0.45897508  0.68638418    -0.32900
H1068       H  0.74008369  0.42840411  0.67808547     0.28500
H1069       H  0.83395148  0.01495540  0.82274396     0.28500
H1070       H  0.74485518  0.39814799  0.78728136     0.19100
H1071       H  0.76458706  0.03483428  0.72965140     0.19100
Zn1072     Zn  0.90879911  0.70559726  0.85171318     1.49700
Zn1073     Zn  0.81051568  0.69450639  0.84271906     1.49400
Zn1074     Zn  0.85330533  0.66482817  0.78702756     1.49100
Zn1075     Zn  0.81660583  0.60560216  0.85101863     1.49500
O1076       O  0.84761834  0.66805643  0.83263014    -1.84700
O1077       O  0.91327374  0.75731125  0.87855196    -0.75400
O1078       O  0.79144238  0.71265221  0.80365858    -0.75200
O1079       O  0.92199426  0.70053237  0.77438225    -0.74700
O1080       O  0.84702312  0.75247963  0.86882569    -0.75400
O1081       O  0.95800290  0.73424196  0.81870991    -0.75000
O1082       O  0.82174029  0.69432362  0.76475260    -0.75600
O1083       O  0.79108221  0.55783673  0.81742464    -0.74900
O1084       O  0.75346553  0.64984370  0.86768589    -0.75700
O1085       O  0.82108480  0.59583880  0.77307868    -0.75100
O1086       O  0.76375221  0.59155445  0.87842570    -0.75600
O1087       O  0.86001481  0.59412339  0.87499448    -0.75500
O1088       O  0.92466684  0.66499199  0.87681642    -0.75300
C1089       C  0.88632164  0.77224025  0.88213038     0.76500
C1090       C  0.79858156  0.71125885  0.77481064     0.77000
C1091       C  0.95920383  0.72745134  0.78968864     0.76000
C1092       C  0.79714513  0.55755316  0.78836718     0.76400
C1093       C  0.74067482  0.61089812  0.88107553     0.77500
C1094       C  0.90199686  0.62116266  0.88305033     0.76500
C1095       C  0.70878482  0.79909191  0.72160162     0.85900
C1096       C  0.66203301  0.77686999  0.73838791    -0.54400
C1097       C  0.63953279  0.79990610  0.73398077     0.08800
C1098       C  0.66632734  0.84411025  0.71343181     0.19800
C1099       C  0.69839421  0.80344043  0.68747377    -0.55100
C1100       C  0.67611902  0.82691489  0.68275789     0.08900
C1101       C  0.73540262  0.85019305  0.73376264    -0.54600
C1102       C  0.71371228  0.87391023  0.72944979     0.09500
H1103       H  0.64823466  0.74618322  0.75327961     0.14000
H1104       H  0.64843993  0.86328839  0.71121459    -0.00300
H1105       H  0.70877721  0.78933476  0.66900065     0.14300
H1106       H  0.76756608  0.86613052  0.74669826     0.14100
C1107       C  0.55977659  0.52269699  0.93875316     0.85900
C1108       C  0.54020922  0.55094690  0.92562625    -0.54400
C1109       C  0.99520020  0.53389789  0.93275202     0.08800
C1110       C  0.97357774  0.98947584  0.95373355     0.19800
C1111       C  0.55137135  0.52031211  0.97382689    -0.55100
C1112       C  0.00636407  0.00306644  0.98210679     0.08900
C1113       C  0.52504729  0.97220981  0.92706463    -0.54600
C1114       C  0.98047225  0.95460807  0.93540608     0.09500
H1115       H  0.56024496  0.58193742  0.91116825     0.14000
H1116       H  0.93699922  0.97539121  0.95940324    -0.00300
H1117       H  0.57930958  0.53046438  0.99013055     0.14300
H1118       H  0.53315111  0.95074084  0.91336634     0.14100
Zn1119     Zn  0.52905279  0.96738583  0.49145668     1.49700
Zn1120     Zn  0.99471797  0.50563904  0.54786372     1.49400
Zn1121     Zn  0.53086500  0.56217081  0.48230719     1.49100
Zn1122     Zn  0.93541039  0.96317474  0.48548153     1.49500
O1123       O  0.99780490  0.49998333  0.50218973    -1.84700
O1124       O  0.54905285  0.95064158  0.53073290    -0.75400
O1125       O  0.52873123  0.57497820  0.55998627    -0.75200
O1126       O  0.58765043  0.57487837  0.45942992    -0.74700
O1127       O  0.52559237  0.97584499  0.56999757    -0.75400
O1128       O  0.58780386  0.50961728  0.46659872    -0.75000
O1129       O  0.55359551  0.61299656  0.51492371    -0.75600
O1130       O  0.92348516  0.50103583  0.45510701    -0.74900
O1131       O  0.92834122  0.97346368  0.56304783    -0.75700
O1132       O  0.98945896  0.56986248  0.45210880    -0.75100
O1133       O  0.88932784  0.94452700  0.51913318    -0.75600
O1134       O  0.92131299  0.90368563  0.46461470    -0.75500
O1135       O  0.98737656  0.90642496  0.46701661    -0.75300
C1136       C  0.54577724  0.95591894  0.55967777     0.76500
C1137       C  0.55024297  0.61315438  0.54437467     0.77000
C1138       C  0.60663283  0.55141399  0.45597240     0.76000
C1139       C  0.94739344  0.54228526  0.44390048     0.76400
C1140       C  0.89010091  0.95060079  0.54832002     0.77500
C1141       C  0.94493160  0.88557424  0.45906300     0.76500
C1142       C  0.85774756  0.63066717  0.38998137     0.85900
C1143       C  0.80909998  0.60671019  0.40424254    -0.54400
C1144       C  0.78608993  0.62879069  0.39831073     0.08800
C1145       C  0.81543257  0.67530981  0.38015320     0.19800
C1146       C  0.85059254  0.63691511  0.35548781    -0.55100
C1147       C  0.82876712  0.66062017  0.34986481     0.08900
C1148       C  0.88232894  0.68018933  0.40414482    -0.54600
C1149       C  0.86116566  0.70407069  0.39857390     0.09500
H1150       H  0.79427948  0.57576972  0.41895658     0.14000
H1151       H  0.79778638  0.69456592  0.37690597    -0.00300
H1152       H  0.86233088  0.62336280  0.33752580     0.14300
H1153       H  0.91331032  0.69500017  0.41836267     0.14100
C1154       C  0.63701072  0.86986964  0.61241912     0.85900
C1155       C  0.61420267  0.82168796  0.59606897    -0.54400
C1156       C  0.63611807  0.79812637  0.60058460     0.08800
C1157       C  0.68049660  0.82588290  0.62027547     0.19800
C1158       C  0.64222305  0.86005659  0.64648509    -0.55100
C1159       C  0.66517071  0.83726734  0.65107397     0.08900
C1160       C  0.68676532  0.89642043  0.59976649    -0.54600
C1161       C  0.70925375  0.87345383  0.60347721     0.09500
H1162       H  0.58356746  0.80741986  0.58155438     0.14000
H1163       H  0.69895388  0.80732830  0.62273459    -0.00300
H1164       H  0.62909875  0.87126655  0.66503547     0.14300
H1165       H  0.70271637  0.92926452  0.58701276     0.14100
Zn1166     Zn  0.71272493  0.86945336  0.18360262     1.49700
Zn1167     Zn  0.65200129  0.82907554  0.12065977     1.49400
Zn1168     Zn  0.61695303  0.77117364  0.18510372     1.49100
Zn1169     Zn  0.61865705  0.86598043  0.17792749     1.49500
O1170       O  0.65001426  0.83392236  0.16654991    -1.84700
O1171       O  0.75842710  0.88932640  0.14897412    -0.75400
O1172       O  0.62119653  0.76065181  0.10729206    -0.75200
O1173       O  0.65819055  0.76241352  0.21409997    -0.74700
O1174       O  0.71819531  0.86128559  0.10537964    -0.75400
O1175       O  0.72475773  0.83083178  0.21342685    -0.75000
O1176       O  0.59717841  0.72213789  0.15199941    -0.75600
O1177       O  0.56142864  0.82418532  0.20347183    -0.72200
O1178       O  0.62133815  0.85993627  0.09911329    -0.75700
O1179       O  0.56041346  0.75797531  0.20885126    -0.75100
O1180       O  0.60003608  0.88529336  0.13943953    -0.75600
O1181       O  0.66056165  0.92576240  0.20203612    -0.75500
O1182       O  0.72622988  0.92773068  0.20645354    -0.75300
C1183       C  0.75683540  0.88376649  0.11960512     0.76500
C1184       C  0.60204147  0.72230082  0.12271768     0.77000
C1185       C  0.69986707  0.78863473  0.22317975     0.76000
C1186       C  0.54291336  0.78250833  0.21414981     0.76400
C1187       C  0.60291369  0.88117122  0.11030582     0.77500
C1188       C  0.70213860  0.94547624  0.21150709     0.76500
C1189       C  0.93839040  0.96620267  0.06016691     0.85900
C1190       C  0.96745705  0.51733450  0.07168329    -0.54400
C1191       C  0.51153186  0.54107464  0.06343131     0.08800
C1192       C  0.52485241  0.51267935  0.04310196     0.19800
C1193       C  0.94515851  0.97130066  0.02442293    -0.55100
C1194       C  0.49073195  0.49561882  0.01531593     0.08900
C1195       C  0.96504820  0.94318369  0.06982884    -0.54600
C1196       C  0.51078634  0.96752023  0.06109629     0.09500
H1197       H  0.95339438  0.53298581  0.08630281     0.14000
H1198       H  0.56177168  0.53312136  0.03696433    -0.00300
H1199       H  0.91693342  0.95591285  0.00793418     0.14300
H1200       H  0.94901296  0.91003868  0.08241642     0.14100
C1201       C  0.79304530  0.70353555  0.27752474     0.85900
C1202       C  0.76672670  0.65367906  0.26353815    -0.54400
C1203       C  0.78694423  0.62873190  0.26834830     0.08800
C1204       C  0.83194783  0.65554230  0.28748701     0.19800
C1205       C  0.79887866  0.69619472  0.31202357    -0.55100
C1206       C  0.81926207  0.67110172  0.31769848     0.08900
C1207       C  0.84149024  0.72556222  0.26332009    -0.54600
C1208       C  0.86250827  0.70131119  0.26899765     0.09500
H1209       H  0.73567378  0.63964667  0.24946615     0.14000
H1210       H  0.84819269  0.63506174  0.29107211    -0.00300
H1211       H  0.78764911  0.71026477  0.32998337     0.14300
H1212       H  0.85733797  0.75642155  0.24852627     0.14100
C1213       C  0.80143725  0.90310104  0.10264164    -0.06700
C1214       C  0.84114704  0.91784446  0.12067451    -0.17900
C1215       C  0.88473961  0.93693410  0.10747067     0.10500
C1216       C  0.88987650  0.94109761  0.07455076    -0.06600
C1217       C  0.84978990  0.92493016  0.05632250    -0.17900
C1218       C  0.80617251  0.90681135  0.06985459     0.10500
S1219       S  0.93349011  0.95697647  0.13376850    -0.32900
S1220       S  0.75874152  0.89112989  0.04378304    -0.32900
H1221       H  0.74455919  0.91749958  0.06004056     0.28500
H1222       H  0.90970227  0.94738378  0.16202611     0.28500
H1223       H  0.83820898  0.91465095  0.14568696     0.19100
H1224       H  0.85193241  0.92782369  0.03133245     0.19100
C1225       C  0.54338000  0.58902193  0.07561876    -0.06700
C1226       C  0.55665112  0.59317605  0.10682648    -0.17900
C1227       C  0.57875690  0.63658350  0.12204836     0.10500
C1228       C  0.58499014  0.67684483  0.10642131    -0.06600
C1229       C  0.57293412  0.67282118  0.07473558    -0.17900
C1230       C  0.55275676  0.62952180  0.05916894     0.10500
S1231       S  0.59854648  0.63769589  0.16116812    -0.32900
S1232       S  0.53638626  0.62711143  0.01906230    -0.32900
H1233       H  0.54999491  0.59613890  0.01027751     0.28500
H1234       H  0.64091243  0.68076557  0.15734721     0.28500
H1235       H  0.54891054  0.56196948  0.11965878     0.19100
H1236       H  0.57795801  0.70321219  0.06218724     0.19100
C1237       C  0.58548798  0.90361514  0.08983710    -0.06700
C1238       C  0.60649856  0.95252649  0.09244382    -0.17900
C1239       C  0.58484062  0.97526956  0.08122482     0.10500
C1240       C  0.54044157  0.94820059  0.06753093    -0.06600
C1241       C  0.52134583  0.89969517  0.06265166    -0.17900
C1242       C  0.54346237  0.87728489  0.07342897     0.10500
S1243       S  0.61125112  0.53748806  0.08912145    -0.32900
S1244       S  0.51405272  0.81440967  0.06852370    -0.32900
H1245       H  0.55432012  0.81433931  0.06286131     0.28500
H1246       H  0.65480782  0.54646410  0.09804279     0.28500
H1247       H  0.63869103  0.97250670  0.10525438     0.19100
H1248       H  0.48792536  0.87863035  0.05140160     0.19100
C1249       C  0.72095208  0.76944867  0.24405760    -0.06700
C1250       C  0.76849895  0.79780157  0.25087117    -0.17900
C1251       C  0.79206986  0.77943855  0.26568380     0.10500
C1252       C  0.76866171  0.73030008  0.27161241    -0.06600
C1253       C  0.72006209  0.70426224  0.26959300    -0.17900
C1254       C  0.69608849  0.72293900  0.25602106     0.10500
S1255       S  0.85029864  0.82163148  0.27851083    -0.32900
S1256       S  0.63406927  0.68471282  0.25442611    -0.32900
H1257       H  0.62649809  0.71978771  0.26462040     0.28500
H1258       H  0.84969203  0.79435563  0.30354223     0.28500
H1259       H  0.78782686  0.83471911  0.24448350     0.19100
H1260       H  0.70032366  0.66817244  0.27770637     0.19100
C1261       C  0.72377388  0.99136876  0.22717040    -0.06700
C1262       C  0.73558873  0.53064252  0.20846186    -0.17900
C1263       C  0.75857397  0.57592973  0.22103564     0.10500
C1264       C  0.76876851  0.58238880  0.25326618    -0.06600
C1265       C  0.75806573  0.54329619  0.27166505    -0.17900
C1266       C  0.73488761  0.99747573  0.25917479     0.10500
S1267       S  0.77551283  0.62394893  0.19427237    -0.32900
S1268       S  0.72030855  0.94885240  0.28473995    -0.32900
H1269       H  0.68149991  0.91443873  0.26792658     0.28500
H1270       H  0.81603891  0.65683397  0.21025171     0.28500
H1271       H  0.72777626  0.52598527  0.18379455     0.19100
H1272       H  0.76576871  0.54797211  0.29633671     0.19100
C1273       C  0.91035490  0.71925340  0.25786581    -0.06700
C1274       C  0.94372463  0.76740664  0.26204052    -0.17900
C1275       C  0.48739511  0.78860849  0.24989759     0.10500
C1276       C  0.49920123  0.76133225  0.23203909    -0.06600
C1277       C  0.96735078  0.71234787  0.22894892    -0.17900
C1278       C  0.92294063  0.69110366  0.24179293     0.10500
S1279       S  0.52720519  0.85029203  0.25806149    -0.32900
S1280       S  0.88222804  0.62915991  0.23481050    -0.32900
H1281       H  0.91353802  0.61892444  0.22201097     0.28500
H1282       H  0.56605144  0.84662212  0.26121396     0.28500
H1283       H  0.93508718  0.78911245  0.27517539     0.19100
H1284       H  0.97614141  0.69121316  0.21535641     0.19100
C1285       C  0.65157554  0.57283967  0.43945500    -0.06700
C1286       C  0.66166632  0.54287346  0.42373366    -0.17900
C1287       C  0.70361868  0.56039204  0.40828644     0.10500
C1288       C  0.73782180  0.60926415  0.40930979    -0.06600
C1289       C  0.72674602  0.63950160  0.42344082    -0.17900
C1290       C  0.68475395  0.62204077  0.43894815     0.10500
S1291       S  0.70998987  0.51850834  0.38636412    -0.32900
S1292       S  0.67765367  0.66442367  0.45949433    -0.32900
H1293       H  0.66141675  0.63744679  0.48686502     0.28500
H1294       H  0.73756423  0.55051905  0.36298463     0.28500
H1295       H  0.63625486  0.50532802  0.42298780     0.19100
H1296       H  0.75175900  0.67694519  0.42379322     0.19100
C1297       C  0.92232381  0.83931770  0.44308657    -0.06700
C1298       C  0.94678321  0.83207589  0.42013321    -0.17900
C1299       C  0.92641517  0.78956695  0.40363481     0.10500
C1300       C  0.88089663  0.75250643  0.41077117    -0.06600
C1301       C  0.85633800  0.75989193  0.43343095    -0.17900
C1302       C  0.87635172  0.80254632  0.44965321     0.10500
S1303       S  0.96012666  0.78515145  0.37343111    -0.32900
S1304       S  0.84234883  0.80622553  0.47998857    -0.32900
H1305       H  0.87941405  0.83051930  0.50102357     0.28500
H1306       H  0.92232751  0.75265389  0.35500663     0.28500
H1307       H  0.98172519  0.86012057  0.41452720     0.19100
H1308       H  0.82235963  0.73129703  0.44001005     0.19100
C1309       C  0.92533934  0.55973761  0.42249090    -0.06700
C1310       C  0.95215599  0.60603058  0.41115547    -0.17900
C1311       C  0.93190210  0.62791442  0.39650067     0.10500
C1312       C  0.88296337  0.60473163  0.39558255    -0.06600
C1313       C  0.85711409  0.55610035  0.40207879    -0.17900
C1314       C  0.87755367  0.53330814  0.41501367     0.10500
S1315       S  0.97116715  0.68481708  0.37943800    -0.32900
S1316       S  0.83949143  0.97057563  0.42191577    -0.32900
H1317       H  0.87078733  0.95998164  0.40947544     0.28500
H1318       H  0.94157093  0.68055421  0.35526296     0.28500
H1319       H  0.98933963  0.62586885  0.41411548     0.19100
H1320       H  0.82038270  0.53531370  0.39739725     0.19100
C1321       C  0.75509625  0.89127103  0.58929629    -0.06700
C1322       C  0.79188571  0.89809587  0.60802960    -0.17900
C1323       C  0.83670029  0.91851935  0.59596303     0.10500
C1324       C  0.84488389  0.93141042  0.56416377    -0.06600
C1325       C  0.80757742  0.92386841  0.54563470    -0.17900
C1326       C  0.76323230  0.90385312  0.55753962     0.10500
S1327       S  0.88132750  0.92593470  0.62203379    -0.32900
S1328       S  0.71863658  0.89416273  0.53024696    -0.32900
H1329       H  0.68240783  0.85352378  0.54443743     0.28500
H1330       H  0.90664170  0.47474256  0.61916753     0.28500
H1331       H  0.78590400  0.88856847  0.63240000     0.19100
H1332       H  0.81274808  0.93334340  0.52124489     0.19100
C1333       C  0.57231438  0.65911333  0.56052282    -0.06700
C1334       C  0.61887026  0.69291601  0.55430927    -0.17900
C1335       C  0.64149982  0.73781573  0.56810313     0.10500
C1336       C  0.61665086  0.74967668  0.58808424    -0.06600
C1337       C  0.57032916  0.71538312  0.59474324    -0.17900
C1338       C  0.54798507  0.67050692  0.58125302     0.10500
S1339       S  0.70127050  0.77967646  0.55890087    -0.32900
S1340       S  0.98751370  0.63022658  0.59068135    -0.32900
H1341       H  0.97436935  0.61041930  0.56079304     0.28500
H1342       H  0.70707568  0.75110971  0.53805890     0.28500
H1343       H  0.63746793  0.68392498  0.53851978     0.19100
H1344       H  0.55099481  0.72408134  0.61008709     0.19100
C1345       C  0.56712652  0.93899811  0.58133421    -0.06700
C1346       C  0.54078672  0.89272799  0.59240371    -0.17900
C1347       C  0.56184481  0.87111371  0.60649664     0.10500
C1348       C  0.61097845  0.89533012  0.60760639    -0.06600
C1349       C  0.63605278  0.94407724  0.60087189    -0.17900
C1350       C  0.61490740  0.96574427  0.58730986     0.10500
S1351       S  0.52347309  0.81247754  0.62155949    -0.32900
S1352       S  0.65116055  0.52643645  0.57622047    -0.32900
H1353       H  0.61685735  0.53723433  0.57736817     0.28500
H1354       H  0.55164899  0.81681311  0.64670584     0.28500
H1355       H  0.50366475  0.87267278  0.58899599     0.19100
H1356       H  0.67274471  0.96581030  0.60528912     0.19100
C1357       C  0.90176850  0.81501311  0.90078372    -0.06700
C1358       C  0.89371656  0.84893830  0.88886183    -0.17900
C1359       C  0.91464003  0.89376183  0.90214663     0.10500
C1360       C  0.94456649  0.90524291  0.92783037    -0.06600
C1361       C  0.94912748  0.86992069  0.94148941    -0.17900
C1362       C  0.92768171  0.82484372  0.92847930     0.10500
S1363       S  0.40439313  0.93521599  0.88380893    -0.32900
S1364       S  0.93562392  0.78197915  0.94782395    -0.32900
H1365       H  0.89263768  0.74265320  0.93877964     0.28500
H1366       H  0.39933713  0.95336150  0.91171850     0.28500
H1367       H  0.87324926  0.84151494  0.86789012     0.19100
H1368       H  0.97184076  0.87842257  0.96138279     0.19100
C1369       C  0.69748466  0.58704547  0.89934458    -0.06700
C1370       C  0.68629600  0.61414352  0.91750095    -0.17900
C1371       C  0.64398226  0.59336935  0.93330993     0.10500
C1372       C  0.61071570  0.54441502  0.92962114    -0.06600
C1373       C  0.62503765  0.51705659  0.91466921    -0.17900
C1374       C  0.66689645  0.53765359  0.89888973     0.10500
S1375       S  0.63300573  0.63008093  0.95772060    -0.32900
S1376       S  0.67702939  0.49870608  0.87653229    -0.32900
H1377       H  0.69117145  0.52699025  0.84968197     0.28500
H1378       H  0.67665713  0.67183892  0.95470238     0.28500
H1379       H  0.71070856  0.65180254  0.91904177     0.19100
H1380       H  0.60368734  0.47923888  0.91411339     0.19100
C1381       C  0.92607643  0.60018204  0.89708587    -0.06700
C1382       C  0.94912026  0.58719798  0.87682695    -0.17900
C1383       C  0.97085243  0.56450813  0.88767286     0.10500
C1384       C  0.96987594  0.55485434  0.91982788    -0.06600
C1385       C  0.94576635  0.56687063  0.94004445    -0.17900
C1386       C  0.92420082  0.58984759  0.92903293     0.10500
S1387       S  0.49859934  0.54739535  0.86013724    -0.32900
S1388       S  0.89510884  0.60515372  0.95672929    -0.32900
H1389       H  0.90071157  0.64416285  0.94039739     0.28500
H1390       H  0.48766934  0.56355967  0.83330739     0.28500
H1391       H  0.94947467  0.59442485  0.85224986     0.19100
H1392       H  0.94483115  0.55949037  0.96465382     0.19100
C1393       C  0.73424723  0.77297402  0.72666261    -0.06700
C1394       C  0.78256439  0.79927848  0.73177791    -0.17900
C1395       C  0.80521931  0.77917726  0.74540824     0.10500
C1396       C  0.77990042  0.73100743  0.75303936    -0.06600
C1397       C  0.73358893  0.70308421  0.74369443    -0.17900
C1398       C  0.71097950  0.72308219  0.72951434     0.10500
S1399       S  0.86560921  0.81779433  0.75505040    -0.32900
S1400       S  0.65279658  0.68243504  0.71594213    -0.32900
H1401       H  0.65436556  0.71045737  0.69119080     0.28500
H1402       H  0.87700646  0.78349771  0.75285079     0.28500
H1403       H  0.80320798  0.83632648  0.72611576     0.19100
H1404       H  0.71445883  0.66555935  0.74834375     0.19100
C1405       C  0.00556718  0.74954762  0.77459387    -0.06700
C1406       C  0.54253507  0.75671059  0.79317132    -0.17900
C1407       C  0.58673504  0.77520667  0.78094611     0.10500
C1408       C  0.59422548  0.78433855  0.74873838    -0.06600
C1409       C  0.55715945  0.77675750  0.72994885    -0.17900
C1410       C  0.01353535  0.76018308  0.74245387     0.10500
S1411       S  0.63221716  0.78754597  0.80808000    -0.32900
S1412       S  0.96940368  0.75348326  0.71608043    -0.32900
H1413       H  0.95046294  0.77044259  0.73719981     0.28500
H1414       H  0.66680016  0.82738731  0.79222758     0.28500
H1415       H  0.53761299  0.74894406  0.81780508     0.19100
H1416       H  0.56262556  0.78428093  0.70529826     0.19100
C1417       C  0.73248397  0.92111790  0.74372701    -0.06700
C1418       C  0.74692354  0.92668597  0.77482628    -0.17900
C1419       C  0.76896334  0.97036795  0.78948067     0.10500
C1420       C  0.77650572  0.51116609  0.77278069    -0.06600
C1421       C  0.76083365  0.50540640  0.74185317    -0.17900
C1422       C  0.73939961  0.96085845  0.72723282     0.10500
S1423       S  0.79123252  0.97285612  0.82804733    -0.32900
S1424       S  0.72543200  0.95876099  0.68665119    -0.32900
H1425       H  0.73986498  0.92816795  0.67843150     0.28500
H1426       H  0.83676202  0.51750242  0.82146068     0.28500
H1427       H  0.74257520  0.89681940  0.78769049     0.19100
H1428       H  0.76511239  0.53538388  0.72916216     0.19100
loop_ 
_geom_bond_atom_site_label_1 
_geom_bond_atom_site_label_2 
_geom_bond_distance 
_geom_bond_site_symmetry_2 
_ccdc_geom_bond_type 
Zn1           O5   1.953       .  S
Zn1           O6   2.026       .  S
Zn1          O10   2.019       .  S
Zn1          O17   2.026       .  S
Zn2           O5   1.954       .  S
Zn2           O7   2.008       .  S
Zn2           O9   2.002       .  S
Zn2          O13   2.026       .  S
Zn3           O5   1.983       .  S
Zn3           O8   2.065       .  S
Zn3          O11   2.049       .  S
Zn3          O14   2.052       .  S
Zn4           O5   1.942       .  S
Zn4          O12   1.982       .  S
Zn4          O15   2.002       .  S
Zn4          O16   2.006       .  S
O6           C18   1.276       .  A
O7           C19   1.273       .  A
O8           C20   1.279       .  A
O9           C18   1.272       .  A
O10          C20   1.276       .  A
O11          C19   1.277       .  A
O12          C21   1.270       .  A
O13          C22   1.273       .  A
O14          C21   1.278       .  A
O15          C22   1.270       .  A
O16          C23   1.270       .  A
O17          C23   1.273       .  A
C18         C286   1.476       .  S
C19         C325   1.473       .  S
C20         C334   1.499       .  S
C21         C349   1.483       .  S
C22         C298   1.481       .  S
C23         C310   1.469       .  S
C24          C25   1.542       .  S
C24          C30   1.542       .  S
C24          C28   1.534       .  S
C24         C322   1.548       .  S
C25          H32   1.084       .  S
C25          C26   1.366       .  D
C26          C27   1.541       .  S
C26         C337   1.493       .  S
C27          C31   1.538       .  S
C27          C29   1.552       .  S
C27          H33   1.106       .  S
C28          H34   1.082       .  S
C28          C29   1.374       .  D
C29          C88   1.501       .  S
C30          H35   1.084       .  S
C30          C31   1.362       .  D
C31         C346   1.489       .  S
C36          C37   1.531       .  S
C36          C40   1.533       .  S
C36         C399   1.544   1_545  S
C36         C301   1.542       .  S
C37          H44   1.086       .  S
C37         C752   1.362   1_455  D
C38         C396   1.544   1_545  S
C38         C751   1.362       .  D
C38         C313   1.485       .  S
C39          C43   1.535       .  S
C39          C41   1.549       .  S
C39         C395   1.543       .  S
C39          H45   1.106       .  S
C40          H46   1.081       .  S
C40        C1112   1.377       .  D
C41        C1111   1.377       .  D
C41        C1194   1.501   1_556  S
C42         C393   1.543       .  S
C42          H47   1.079       .  S
C42         C757   1.360   1_455  D
C43         C756   1.360       .  D
C43         C289   1.478       .  S
Zn48       O1123   1.958   1_455  S
Zn48         O53   2.009       .  S
Zn48        O414   2.029       .  S
Zn48        O778   2.042   1_455  S
Zn49         O52   1.985       .  S
Zn49        O768   2.039       .  S
Zn49       O1127   2.037   1_545  S
Zn49        O417   2.049   1_545  S
Zn50        O766   1.964   1_445  S
Zn50         O55   2.018       .  S
Zn50         O58   2.018       .  S
Zn50        O775   2.029   1_455  S
Zn51        O409   1.945       .  S
Zn51         O62   1.988       .  S
Zn51         O63   2.002       .  S
Zn51        O416   1.998       .  S
O52       Zn1119   1.958   1_545  S
O52        Zn764   1.965       .  S
O52        Zn408   1.944   1_545  S
O53          C65   1.273       .  A
O54        Zn763   2.040   1_455  S
O54          C66   1.276       .  A
O55          C67   1.272       .  A
O56       Zn1120   2.037   1_455  S
O56          C65   1.275       .  A
O57        Zn405   2.031   1_545  S
O57          C67   1.276       .  A
O58          C66   1.274       .  A
O59        Zn408   1.996   1_545  S
O59          C68   1.269       .  A
O60        Zn406   2.049       .  S
O60          C69   1.275       .  A
O61        Zn764   2.031       .  S
O61          C68   1.276       .  A
O62          C69   1.271       .  A
O63          C70   1.271       .  A
O64        Zn762   2.044       .  S
O64          C70   1.276       .  A
C65         C274   1.470       .  S
C66         C262   1.480       .  S
C67         C214   1.490       .  S
C68         C238   1.492       .  S
C69         C253   1.492       .  S
C70         C226   1.483       .  S
C71          C72   1.542       .  S
C71          C77   1.533       .  S
C71          C75   1.535       .  S
C71         C241   1.539       .  S
C72          H79   1.084       .  S
C72          C73   1.364       .  D
C73          C74   1.544       .  S
C73         C217   1.496       .  S
C74          C78   1.545       .  S
C74          C76   1.551       .  S
C74          H80   1.105       .  S
C75          H81   1.081       .  S
C75          C76   1.374       .  D
C76         C135   1.504       .  S
C77          H82   1.085       .  S
C77          C78   1.359       .  D
C78         C229   1.485       .  S
C83          C84   1.540       .  S
C83          C89   1.543       .  S
C83          C87   1.532       .  S
C83         C277   1.545       .  S
C84          H91   1.085       .  S
C84          C85   1.365       .  D
C85          C86   1.540       .  S
C85         C265   1.491       .  S
C86          C90   1.538       .  S
C86          C88   1.552       .  S
C86          H92   1.105       .  S
C87          H93   1.082       .  S
C87          C88   1.374       .  D
C89          H94   1.083       .  S
C89          C90   1.360       .  D
C90         C250   1.485       .  S
Zn95         O99   1.955       .  S
Zn95        O100   2.006       .  S
Zn95        O104   2.014       .  S
Zn95        O111   2.013       .  S
Zn96         O99   1.987       .  S
Zn96        O101   2.032       .  S
Zn96        O103   2.034       .  S
Zn96        O107   2.046       .  S
Zn97         O99   1.952       .  S
Zn97        O102   2.015       .  S
Zn97        O105   2.003       .  S
Zn97        O108   2.025       .  S
Zn98         O99   1.951       .  S
Zn98        O106   2.024       .  S
Zn98        O109   1.999       .  S
Zn98        O110   2.020       .  S
O100        C112   1.275       .  A
O101        C113   1.275       .  A
O102        C114   1.272       .  A
O103        C112   1.273       .  A
O104        C114   1.273       .  A
O105        C113   1.272       .  A
O106        C115   1.274       .  A
O107        C116   1.276       .  A
O108        C115   1.274       .  A
O109        C116   1.272       .  A
O110        C117   1.273       .  A
O111        C117   1.271       .  A
C112        C142   1.497       .  S
C113        C157   1.487       .  S
C114        C178   1.494       .  S
C115        C205   1.488   1_455  S
C116        C166   1.474       .  S
C117        C190   1.469       .  S
C118        C124   1.535       .  S
C118        C122   1.553       .  S
C118        C476   1.528       .  S
C118        C145   1.539       .  S
C119        C475   1.528   1_545  S
C119        H126   1.087       .  S
C119        C834   1.352       .  D
C120        C121   1.537       .  S
C120        C833   1.352   1_455  D
C120        C154   1.476       .  S
C121        C123   1.548   1_445  S
C121        C482   1.542   1_545  S
C121        H127   1.103       .  S
C122        H128   1.079       .  S
C122       C1194   1.382       .  D
C123       C1193   1.382       .  D
C123       C1112   1.502   1_664  S
C124        H129   1.087       .  S
C124        C839   1.364       .  D
C125        C478   1.542       .  S
C125        C838   1.365   1_455  D
C125        C169   1.494       .  S
C130        C131   1.538       .  S
C130        C136   1.541       .  S
C130        C134   1.534       .  S
C130        C181   1.540       .  S
C131        H138   1.086       .  S
C131        C132   1.359       .  D
C132        C133   1.540       .  S
C132        C193   1.482       .  S
C133        C137   1.541       .  S
C133        C135   1.552       .  S
C133        H139   1.103       .  S
C134        H140   1.082       .  S
C134        C135   1.373       .  D
C136        H141   1.083       .  S
C136        C137   1.367       .  D
C137        C202   1.494       .  S
C142        C143   1.403       .  A
C142        C147   1.419       .  A
C143        C144   1.396       .  A
C143        H152   1.082       .  S
C144        C145   1.426       .  A
C144        S148   1.817       .  S
C145        C146   1.410       .  A
C146        C147   1.407       .  A
C146        H153   1.079       .  S
C147        S149   1.801       .  S
S148        H151   1.406       .  S
S149        H150   1.408       .  S
C154        C155   1.399       .  A
C154        C159   1.409       .  A
C155        C156   1.395       .  A
C155        H164   1.084       .  S
C156        C157   1.420       .  A
C156        S160   1.804       .  S
C157        C158   1.408       .  A
C158        C159   1.402       .  A
C158        H165   1.083       .  S
C159        S161   1.800       .  S
S160        H163   1.408       .  S
S161        H162   1.403       .  S
C166        C167   1.402       .  A
C166        C171   1.408       .  A
C167        C168   1.403       .  A
C167        H176   1.083       .  S
C168        C169   1.414       .  A
C168        S529   1.803       .  S
C169        C170   1.410       .  A
C170        C171   1.401       .  A
C170        H177   1.084   1_455  S
C171        S173   1.801       .  S
S172        C525   1.803   1_545  S
S172        H175   1.407       .  S
S173        H174   1.405       .  S
C178        C179   1.408       .  A
C178        C183   1.417       .  A
C179        C180   1.402       .  A
C179        H188   1.083       .  S
C180        C181   1.420       .  A
C180        S184   1.805       .  S
C181        C182   1.409       .  A
C182        C183   1.398       .  A
C182        H189   1.083       .  S
C183        S185   1.803       .  S
S184        H187   1.405       .  S
S185        H186   1.408       .  S
C190        C195   1.413       .  A
C190        C548   1.398       .  A
C191        C192   1.395       .  A
C191        C547   1.398   1_545  A
C191        H200   1.084       .  S
C192        C193   1.417       .  A
C192        S196   1.806       .  S
C193        C194   1.403       .  A
C194        C552   1.404   1_545  A
C194        H201   1.084       .  S
C195        C551   1.404       .  A
C195        S197   1.803       .  S
S196        H199   1.404       .  S
S197        H198   1.406       .  S
C202        C203   1.406       .  A
C202        C207   1.416       .  A
C203        C918   1.398       .  A
C203        H212   1.084       .  S
C204        C205   1.414       .  A
C204        C917   1.399       .  A
C204        S208   1.803   1_655  S
C205        C920   1.406       .  A
C206        C207   1.406       .  A
C206        C919   1.406       .  A
C206        H213   1.082       .  S
C207        S209   1.805       .  S
S208        H211   1.407       .  S
S209        H210   1.407       .  S
C214        C215   1.404       .  A
C214        C219   1.419       .  A
C215        C216   1.400       .  A
C215        H224   1.084       .  S
C216        C217   1.418       .  A
C216        S220   1.805       .  S
C217        C218   1.402       .  A
C218        C219   1.403       .  A
C218        H225   1.079       .  S
C219        S221   1.803       .  S
S220        H223   1.407       .  S
S221        H222   1.408       .  S
C226        C227   1.403       .  A
C226        C231   1.417       .  A
C227        C228   1.402       .  A
C227        H236   1.084       .  S
C228        C229   1.415       .  A
C228        S232   1.803       .  S
C229        C230   1.399       .  A
C230        C231   1.400       .  A
C230        H237   1.079       .  S
C231        S233   1.804       .  S
S232        H235   1.406       .  S
S233        H234   1.407       .  S
C238        C239   1.405       .  A
C238        C243   1.419       .  A
C239        C240   1.400       .  A
C239        H248   1.084       .  S
C240        C241   1.422       .  A
C240        S244   1.804       .  S
C241        C242   1.408       .  A
C242        C243   1.398       .  A
C242        H249   1.082       .  S
C243        S602   1.803   1_545  S
S244        H247   1.401       .  S
S245        C600   1.803       .  S
S245        H246   1.408       .  S
C250        C251   1.404       .  A
C250        C255   1.414       .  A
C251        C252   1.407       .  A
C251        H260   1.084       .  S
C252        C253   1.418       .  A
C252        S256   1.798       .  S
C253        C254   1.406       .  A
C254        C255   1.393       .  A
C254        H261   1.084       .  S
C255        S257   1.808       .  S
S256        H616   1.408       .  S
S257        H258   1.403       .  S
H259        S613   1.408       .  S
C262        C263   1.404       .  A
C262        C267   1.412       .  A
C263        C264   1.406       .  A
C263        H272   1.083       .  S
C264        C265   1.414       .  A
C264        S268   1.804       .  S
C265        C266   1.406       .  A
C266        C267   1.400       .  A
C266        H273   1.084       .  S
C267        S983   1.803   1_455  S
S268        H271   1.407       .  S
S269        C981   1.803       .  S
S269        H270   1.406       .  S
C274        C275   1.399       .  A
C274        C279   1.406       .  A
C275        C276   1.403       .  A
C275        H284   1.084       .  S
C276        C277   1.426       .  A
C276        S280   1.806       .  S
C277        C278   1.414       .  A
C278        C279   1.398       .  A
C278        H285   1.080       .  S
C279        S638   1.805       .  S
S280        H283   1.401       .  S
S281        C636   1.805   1_545  S
S281        H282   1.405       .  S
C286        C287   1.404       .  A
C286        C291   1.412       .  A
C287        C288   1.398       .  A
C287        H296   1.084       .  S
C288        C289   1.410       .  A
C288       S1006   1.797       .  S
C289        C290   1.404       .  A
C290        C291   1.399       .  A
C290        H297   1.084       .  S
C291        S293   1.803       .  S
S292       C1002   1.797       .  S
S292        H295   1.402       .  S
S293        H294   1.407       .  S
C298        C299   1.403       .  A
C298        C303   1.411       .  A
C299        C300   1.407       .  A
C299        H308   1.083       .  S
C300        C301   1.422       .  A
C300        S304   1.811       .  S
C301        C302   1.411       .  A
C302        C303   1.395       .  A
C302        H309   1.075   1_545  S
C303        S305   1.805   1_545  S
S304        H307   1.406       .  S
S305        H306   1.408   1_565  S
C310        C311   1.398       .  A
C310        C315   1.411       .  A
C311        C312   1.399       .  A
C311        H320   1.083       .  S
C312        C313   1.417       .  A
C312       S1030   1.812       .  S
C313        C314   1.404       .  A
C314        C315   1.404       .  A
C314        H321   1.084       .  S
C315        S317   1.803       .  S
S316       C1026   1.812       .  S
S316        H319   1.406       .  S
S317        H318   1.405       .  S
C322        C323   1.415       .  A
C322        C327   1.425       .  A
C323        C324   1.399       .  A
C323        H332   1.080       .  S
C324        C325   1.406       .  A
C324        S328   1.805       .  S
C325        C326   1.401       .  A
C326        C327   1.405       .  A
C326        H333   1.084       .  S
C327        S329   1.805       .  S
S328        H331   1.405       .  S
S329        H330   1.402       .  S
C334        C339   1.419       .  A
C334       C1049   1.409       .  A
C335        C336   1.400       .  A
C335       C1048   1.408       .  A
C335        H344   1.084       .  S
C336        C337   1.414       .  A
C336        S340   1.804       .  S
C337        C338   1.405       .  A
C338       C1053   1.408       .  A
C338        H345   1.084       .  S
C339       C1052   1.409       .  A
C339        S341   1.801       .  S
S340        H343   1.403       .  S
S341        H342   1.407       .  S
C346        C347   1.402       .  A
C346        C351   1.414       .  A
C347        C348   1.391       .  A
C347        H356   1.083       .  S
C348        C706   1.417       .  A
C348        S352   1.806       .  S
C349        C350   1.407       .  A
C349        C705   1.416   1_545  A
C350        C708   1.407   1_545  A
C350        H357   1.084       .  S
C351        C707   1.407       .  A
C351        S353   1.800       .  S
S352        H712   1.408       .  S
S353        H354   1.406       .  S
H355        S709   1.408   1_545  S
Zn358       O362   1.953       .  S
Zn358       O363   2.025       .  S
Zn358       O367   2.016       .  S
Zn358       O374   2.025       .  S
Zn359       O362   1.954       .  S
Zn359       O364   2.008       .  S
Zn359       O366   2.002       .  S
Zn359       O370   2.023       .  S
Zn360       O362   1.983       .  S
Zn360       O365   2.067       .  S
Zn360       O368   2.052       .  S
Zn360       O371   2.052       .  S
Zn361       O362   1.943       .  S
Zn361       O369   1.983       .  S
Zn361       O372   1.998       .  S
Zn361       O373   2.006       .  S
O363        C375   1.276       .  A
O364        C376   1.273       .  A
O365        C377   1.280       .  A
O366        C375   1.272       .  A
O367        C377   1.275       .  A
O368        C376   1.278       .  A
O369        C378   1.270       .  A
O370        C379   1.273       .  A
O371        C378   1.278       .  A
O372        C379   1.270       .  A
O373        C380   1.270       .  A
O374        C380   1.273       .  A
C375        C643   1.476       .  S
C376        C682   1.475       .  S
C377        C691   1.498       .  S
C378        C706   1.484       .  S
C379        C655   1.479       .  S
C380        C667   1.469       .  S
C381        C382   1.543       .  S
C381        C387   1.542       .  S
C381        C385   1.535       .  S
C381        C679   1.549       .  S
C382        H389   1.084       .  S
C382        C383   1.366       .  D
C383        C384   1.540       .  S
C383        C694   1.493       .  S
C384        C388   1.538       .  S
C384        C386   1.551       .  S
C384        H390   1.106       .  S
C385        H391   1.082       .  S
C385        C386   1.375       .  D
C386        C445   1.501       .  S
C387        H392   1.083       .  S
C387        C388   1.362       .  D
C388        C703   1.489       .  S
C393        C394   1.531       .  S
C393        C397   1.532       .  S
C393        C658   1.541       .  S
C394        H401   1.086       .  S
C394       C1109   1.362   1_455  D
C395       C1108   1.362       .  D
C395        C670   1.485       .  S
C396        C400   1.535       .  S
C396        C398   1.549   1_565  S
C396        H402   1.106       .  S
C397        H403   1.081       .  S
C397        C755   1.376       .  D
C398        C754   1.376       .  D
C398        C837   1.501   1_546  S
C399        H404   1.080       .  S
C399       C1114   1.360   1_455  D
C400       C1113   1.360       .  D
C400        C646   1.478       .  S
Zn405       O766   1.959   1_455  S
Zn405       O410   2.009       .  S
Zn405      O1135   2.044   1_455  S
Zn406       O409   1.985       .  S
Zn406      O1125   2.040       .  S
Zn406       O770   2.034       .  S
Zn407      O1123   1.964   1_455  S
Zn407       O412   2.016       .  S
Zn407       O415   2.016       .  S
Zn407      O1132   2.031   1_455  S
Zn408       O419   1.987       .  S
Zn408       O420   2.001       .  S
O409       Zn762   1.959       .  S
O409      Zn1121   1.964       .  S
O410        C422   1.273       .  A
O411      Zn1120   2.039   1_455  S
O411        C423   1.276       .  A
O412        C424   1.272       .  A
O413       Zn763   2.034   1_465  S
O413        C422   1.275       .  A
O414        C424   1.276       .  A
O415        C423   1.274       .  A
O416        C425   1.269       .  A
O417        C426   1.275       .  A
O418      Zn1121   2.029       .  S
O418        C425   1.276       .  A
O419        C426   1.271       .  A
O420        C427   1.270       .  A
O421      Zn1119   2.042       .  S
O421        C427   1.276       .  A
C422        C631   1.469       .  S
C423        C619   1.479       .  S
C424        C571   1.490       .  S
C425        C595   1.492       .  S
C426        C610   1.492       .  S
C427        C583   1.483       .  S
C428        C429   1.542       .  S
C428        C434   1.533       .  S
C428        C432   1.536       .  S
C428        C598   1.539       .  S
C429        H436   1.084       .  S
C429        C430   1.364       .  D
C430        C431   1.544       .  S
C430        C574   1.495       .  S
C431        C435   1.545       .  S
C431        C433   1.551       .  S
C431        H437   1.105       .  S
C432        H438   1.082       .  S
C432        C433   1.374       .  D
C433        C492   1.504       .  S
C434        H439   1.085       .  S
C434        C435   1.360       .  D
C435        C586   1.485       .  S
C440        C441   1.540       .  S
C440        C446   1.543       .  S
C440        C444   1.532       .  S
C440        C634   1.544       .  S
C441        H448   1.085       .  S
C441        C442   1.365       .  D
C442        C443   1.540       .  S
C442        C622   1.490       .  S
C443        C447   1.538       .  S
C443        C445   1.551       .  S
C443        H449   1.105       .  S
C444        H450   1.082       .  S
C444        C445   1.374       .  D
C446        H451   1.083       .  S
C446        C447   1.360       .  D
C447        C607   1.484       .  S
Zn452       O456   1.956       .  S
Zn452       O457   2.007       .  S
Zn452       O461   2.016       .  S
Zn452       O468   2.014       .  S
Zn453       O456   1.988       .  S
Zn453       O458   2.035       .  S
Zn453       O460   2.033       .  S
Zn453       O464   2.047       .  S
Zn454       O456   1.952       .  S
Zn454       O459   2.016       .  S
Zn454       O462   2.002       .  S
Zn454       O465   2.025       .  S
Zn455       O456   1.950       .  S
Zn455       O463   2.021       .  S
Zn455       O466   1.997       .  S
Zn455       O467   2.019       .  S
O457        C469   1.275       .  A
O458        C470   1.276       .  A
O459        C471   1.272       .  A
O460        C469   1.273       .  A
O461        C471   1.273       .  A
O462        C470   1.272       .  A
O463        C472   1.274       .  A
O464        C473   1.276       .  A
O465        C472   1.274       .  A
O466        C473   1.272       .  A
O467        C474   1.272       .  A
O468        C474   1.271       .  A
C469        C499   1.497       .  S
C470        C514   1.487       .  S
C471        C535   1.494       .  S
C472        C562   1.488   1_455  S
C473        C523   1.474       .  S
C474        C547   1.469       .  S
C475        C481   1.535       .  S
C475        C479   1.553       .  S
C475        C502   1.539       .  S
C476        H483   1.088       .  S
C476       C1191   1.352       .  D
C477        C478   1.537       .  S
C477       C1190   1.352   1_455  D
C477        C511   1.476       .  S
C478        C480   1.548   1_455  S
C478        H484   1.102       .  S
C479        H485   1.079       .  S
C479        C837   1.381       .  D
C480        C836   1.381       .  D
C480        C755   1.501   1_654  S
C481        H486   1.087       .  S
C481       C1196   1.365       .  D
C482       C1195   1.365   1_455  D
C482        C526   1.494       .  S
C487        C488   1.538       .  S
C487        C493   1.541       .  S
C487        C491   1.534       .  S
C487        C538   1.541       .  S
C488        H495   1.086       .  S
C488        C489   1.359       .  D
C489        C490   1.540       .  S
C489        C550   1.482       .  S
C490        C494   1.541       .  S
C490        C492   1.552       .  S
C490        H496   1.103       .  S
C491        H497   1.082       .  S
C491        C492   1.374       .  D
C493        H498   1.083       .  S
C493        C494   1.367       .  D
C494        C559   1.495       .  S
C499        C500   1.403       .  A
C499        C504   1.419       .  A
C500        C501   1.396       .  A
C500        H509   1.082       .  S
C501        C502   1.426       .  A
C501        S505   1.817       .  S
C502        C503   1.410       .  A
C503        C504   1.407       .  A
C503        H510   1.079       .  S
C504        S506   1.801       .  S
S505        H508   1.406       .  S
S506        H507   1.407       .  S
C511        C512   1.398       .  A
C511        C516   1.409       .  A
C512        C513   1.395       .  A
C512        H521   1.084       .  S
C513        C514   1.419       .  A
C513        S517   1.804       .  S
C514        C515   1.408       .  A
C515        C516   1.403       .  A
C515        H522   1.083       .  S
C516        S518   1.800       .  S
S517        H520   1.408       .  S
S518        H519   1.403       .  S
C523        C524   1.402       .  A
C523        C528   1.408       .  A
C524        C525   1.403       .  A
C524        H533   1.083       .  S
C525        C526   1.414       .  A
C526        C527   1.409       .  A
C527        C528   1.401       .  A
C527        H534   1.084   1_455  S
C528        S530   1.801       .  S
S529        H532   1.407       .  S
S530        H531   1.404       .  S
C535        C536   1.408       .  A
C535        C540   1.417       .  A
C536        C537   1.402       .  A
C536        H545   1.083       .  S
C537        C538   1.420       .  A
C537        S541   1.806       .  S
C538        C539   1.409       .  A
C539        C540   1.398       .  A
C539        H546   1.083       .  S
C540        S542   1.803       .  S
S541        H544   1.405       .  S
S542        H543   1.408       .  S
C547        C552   1.413       .  A
C548        C549   1.395       .  A
C548        H557   1.084       .  S
C549        C550   1.417       .  A
C549        S553   1.806       .  S
C550        C551   1.403       .  A
C551        H558   1.084       .  S
C552        S554   1.803       .  S
S553        H556   1.404       .  S
S554        H555   1.406       .  S
C559        C560   1.406       .  A
C559        C564   1.416       .  A
C560       C1275   1.399       .  A
C560        H569   1.084       .  S
C561       C1274   1.398       .  A
C561        C562   1.414       .  A
C561        S565   1.803   1_655  S
C562       C1277   1.406       .  A
C563       C1276   1.406       .  A
C563        C564   1.406       .  A
C563        H570   1.082       .  S
C564        S566   1.806       .  S
S565        H568   1.407       .  S
S566        H567   1.406       .  S
C571        C572   1.404       .  A
C571        C576   1.419       .  A
C572        C573   1.400       .  A
C572        H581   1.084       .  S
C573        C574   1.418       .  A
C573        S577   1.805       .  S
C574        C575   1.402       .  A
C575        C576   1.402       .  A
C575        H582   1.078       .  S
C576        S578   1.803       .  S
S577        H580   1.407       .  S
S578        H579   1.408       .  S
C583        C584   1.403       .  A
C583        C588   1.418       .  A
C584        C585   1.401       .  A
C584        H593   1.084       .  S
C585        C586   1.415       .  A
C585        S589   1.803       .  S
C586        C587   1.399       .  A
C587        C588   1.400       .  A
C587        H594   1.079       .  S
C588        S590   1.804       .  S
S589        H592   1.406       .  S
S590        H591   1.407       .  S
C595        C596   1.405       .  A
C595        C600   1.419       .  A
C596        C597   1.399       .  A
C596        H605   1.083       .  S
C597        C598   1.422       .  A
C597        S601   1.804       .  S
C598        C599   1.409       .  A
C599        C600   1.398       .  A
C599        H606   1.082       .  S
S601        H604   1.402       .  S
S602        H603   1.408       .  S
C607        C608   1.404       .  A
C607        C612   1.414       .  A
C608        C609   1.407       .  A
C608        H617   1.084       .  S
C609        C610   1.418       .  A
C609        S613   1.798       .  S
C610        C611   1.406       .  A
C611        C612   1.393       .  A
C611        H618   1.084       .  S
C612        S614   1.808       .  S
S614        H615   1.403       .  S
C619        C620   1.404       .  A
C619        C624   1.411       .  A
C620        C621   1.406       .  A
C620        H629   1.083       .  S
C621        C622   1.414       .  A
C621        S625   1.804       .  S
C622        C623   1.406       .  A
C623        C624   1.400       .  A
C623        H630   1.084       .  S
C624       S1340   1.803   1_455  S
S625        H628   1.407       .  S
S626       C1338   1.803       .  S
S626        H627   1.406       .  S
C631        C632   1.399       .  A
C631        C636   1.406       .  A
C632        C633   1.403       .  A
C632        H641   1.084       .  S
C633        C634   1.426       .  A
C633        S637   1.806       .  S
C634        C635   1.414       .  A
C635        C636   1.397       .  A
C635        H642   1.080       .  S
S637        H640   1.401       .  S
S638        H639   1.405       .  S
C643        C644   1.404       .  A
C643        C648   1.412       .  A
C644        C645   1.398       .  A
C644        H653   1.084       .  S
C645        C646   1.410       .  A
C645       S1363   1.797       .  S
C646        C647   1.405       .  A
C647        C648   1.398       .  A
C647        H654   1.084       .  S
C648        S650   1.803       .  S
S649       C1359   1.797       .  S
S649        H652   1.402       .  S
S650        H651   1.407       .  S
C655        C656   1.403       .  A
C655        C660   1.410       .  A
C656        C657   1.407       .  A
C656        H665   1.082       .  S
C657        C658   1.422       .  A
C657        S661   1.811       .  S
C658        C659   1.411       .  A
C659        C660   1.394       .  A
C659        H666   1.073       .  S
C660        S662   1.806       .  S
S661        H664   1.406       .  S
S662        H663   1.408       .  S
C667        C668   1.398       .  A
C667        C672   1.411       .  A
C668        C669   1.398       .  A
C668        H677   1.083       .  S
C669        C670   1.417       .  A
C669       S1387   1.812       .  S
C670        C671   1.405       .  A
C671        C672   1.404       .  A
C671        H678   1.084       .  S
C672        S674   1.803       .  S
S673       C1383   1.812       .  S
S673        H676   1.406       .  S
S674        H675   1.406       .  S
C679        C680   1.415       .  A
C679        C684   1.425       .  A
C680        C681   1.399       .  A
C680        H689   1.080       .  S
C681        C682   1.406       .  A
C681        S685   1.805       .  S
C682        C683   1.401       .  A
C683        C684   1.406       .  A
C683        H690   1.084       .  S
C684        S686   1.805       .  S
S685        H688   1.405       .  S
S686        H687   1.402       .  S
C691       C1406   1.408       .  A
C691        C696   1.419       .  A
C692       C1405   1.409       .  A
C692        C693   1.400       .  A
C692        H701   1.084       .  S
C693        C694   1.414       .  A
C693        S697   1.804       .  S
C694        C695   1.405       .  A
C695       C1410   1.408       .  A
C695        H702   1.084       .  S
C696       C1409   1.409       .  A
C696        S698   1.801       .  S
S697        H700   1.403       .  S
S698        H699   1.407       .  S
C703        C704   1.402       .  A
C703        C708   1.415       .  A
C704        C705   1.391       .  A
C704        H713   1.083       .  S
C705        S709   1.806       .  S
C706        C707   1.407       .  A
C707        H714   1.084       .  S
C708        S710   1.800       .  S
S710        H711   1.406       .  S
Zn715       O719   1.953       .  S
Zn715       O720   2.025       .  S
Zn715       O724   2.016       .  S
Zn715       O731   2.025       .  S
Zn716       O719   1.954       .  S
Zn716       O721   2.008       .  S
Zn716       O723   2.001       .  S
Zn716       O727   2.023       .  S
Zn717       O719   1.983       .  S
Zn717       O722   2.067       .  S
Zn717       O725   2.052       .  S
Zn717       O728   2.053       .  S
Zn718       O719   1.943       .  S
Zn718       O726   1.982       .  S
Zn718       O729   1.998       .  S
Zn718       O730   2.006       .  S
O720        C732   1.276       .  A
O721        C733   1.273       .  A
O722        C734   1.280       .  A
O723        C732   1.272       .  A
O724        C734   1.275       .  A
O725        C733   1.278       .  A
O726        C735   1.270       .  A
O727        C736   1.273       .  A
O728        C735   1.278       .  A
O729        C736   1.270       .  A
O730        C737   1.270       .  A
O731        C737   1.273       .  A
C732       C1000   1.476       .  S
C733       C1039   1.475       .  S
C734       C1048   1.498   1_655  S
C735       C1063   1.484       .  S
C736       C1012   1.479       .  S
C737       C1024   1.469       .  S
C738        C739   1.543       .  S
C738        C744   1.542       .  S
C738        C742   1.535       .  S
C738       C1036   1.549       .  S
C739        H746   1.084       .  S
C739        C740   1.367       .  D
C740        C741   1.540       .  S
C740       C1051   1.493       .  S
C741        C745   1.538       .  S
C741        C743   1.551       .  S
C741        H747   1.106       .  S
C742        H748   1.082       .  S
C742        C743   1.375       .  D
C743        C802   1.500       .  S
C744        H749   1.083       .  S
C744        C745   1.362       .  D
C745       C1060   1.489       .  S
C750        C751   1.531       .  S
C750       C1113   1.543   1_545  S
C750        C754   1.532       .  S
C750       C1015   1.541       .  S
C751        H758   1.086       .  S
C752       C1110   1.543   1_545  S
C752       C1027   1.485       .  S
C753       C1109   1.544       .  S
C753        C757   1.535       .  S
C753        C755   1.549   1_655  S
C753        H759   1.106       .  S
C754        H760   1.081       .  S
C756       C1107   1.543       .  S
C756        H761   1.080       .  S
C757       C1003   1.478       .  S
Zn762       O767   2.009       .  S
Zn762      O1128   2.032       .  S
Zn763       O766   1.985   1_545  S
Zn763      O1131   2.049   1_545  S
Zn764       O769   2.016       .  S
Zn764       O772   2.016       .  S
Zn765      O1123   1.944       .  S
Zn765      O1130   1.996       .  S
Zn765       O776   1.987       .  S
Zn765       O777   2.001       .  S
O766      Zn1122   1.945       .  S
O767        C779   1.273       .  A
O768        C780   1.276       .  A
O769        C781   1.272       .  A
O770        C779   1.275       .  A
O771      Zn1119   2.029   1_545  S
O771        C781   1.276       .  A
O772        C780   1.274       .  A
O773      Zn1122   1.997   1_545  S
O773        C782   1.269       .  A
O774      Zn1120   2.049       .  S
O774        C783   1.275       .  A
O775        C782   1.276       .  A
O776        C783   1.271       .  A
O777        C784   1.270       .  A
O778        C784   1.276       .  A
C779        C988   1.469       .  S
C780        C976   1.479       .  S
C781        C928   1.490       .  S
C782        C952   1.492       .  S
C783        C967   1.491       .  S
C784        C940   1.483       .  S
C785        C786   1.542       .  S
C785        C791   1.533       .  S
C785        C789   1.536       .  S
C785        C955   1.539       .  S
C786        H793   1.084       .  S
C786        C787   1.364       .  D
C787        C788   1.544       .  S
C787        C931   1.496       .  S
C788        C792   1.545       .  S
C788        C790   1.551       .  S
C788        H794   1.105       .  S
C789        H795   1.082       .  S
C789        C790   1.374       .  D
C790        C849   1.505       .  S
C791        H796   1.085       .  S
C791        C792   1.360       .  D
C792        C943   1.485       .  S
C797        C798   1.540       .  S
C797        C803   1.543       .  S
C797        C801   1.532       .  S
C797        C991   1.544       .  S
C798        H805   1.085       .  S
C798        C799   1.365       .  D
C799        C800   1.540       .  S
C799        C979   1.490       .  S
C800        C804   1.538       .  S
C800        C802   1.551       .  S
C800        H806   1.105       .  S
C801        H807   1.082       .  S
C801        C802   1.374       .  D
C803        H808   1.083       .  S
C803        C804   1.360       .  D
C804        C964   1.484       .  S
Zn809       O813   1.955       .  S
Zn809       O814   2.007       .  S
Zn809       O818   2.016       .  S
Zn809       O825   2.014       .  S
Zn810       O813   1.987       .  S
Zn810       O815   2.034       .  S
Zn810       O817   2.033       .  S
Zn810       O821   2.047       .  S
Zn811       O813   1.952       .  S
Zn811       O816   2.016       .  S
Zn811       O819   2.001       .  S
Zn811       O822   2.025       .  S
Zn812       O813   1.950       .  S
Zn812       O820   2.021       .  S
Zn812       O823   1.997       .  S
Zn812       O824   2.019       .  S
O814        C826   1.275       .  A
O815        C827   1.276       .  A
O816        C828   1.272       .  A
O817        C826   1.273       .  A
O818        C828   1.273       .  A
O819        C827   1.272       .  A
O820        C829   1.274       .  A
O821        C830   1.276       .  A
O822        C829   1.274       .  A
O823        C830   1.272       .  A
O824        C831   1.272       .  A
O825        C831   1.271       .  A
C826        C856   1.497       .  S
C827        C871   1.487       .  S
C828        C892   1.494       .  S
C829        C919   1.488       .  S
C830        C880   1.474       .  S
C831        C904   1.469       .  S
C832       C1190   1.528       .  S
C832        C838   1.535       .  S
C832        C836   1.552       .  S
C832        C859   1.539       .  S
C833       C1189   1.527   1_545  S
C833        H840   1.088       .  S
C834        C835   1.537       .  S
C834        C868   1.475       .  S
C835       C1196   1.542   1_545  S
C835        C837   1.548   1_545  S
C835        H841   1.102       .  S
C836        H842   1.079       .  S
C838        H843   1.087       .  S
C839       C1192   1.541       .  S
C839        C883   1.494       .  S
C844        C845   1.537       .  S
C844        C850   1.541       .  S
C844        C848   1.534       .  S
C844        C895   1.541       .  S
C845        H852   1.086       .  S
C845        C846   1.359       .  D
C846        C847   1.540       .  S
C846        C907   1.482       .  S
C847        C851   1.541       .  S
C847        C849   1.552       .  S
C847        H853   1.103       .  S
C848        H854   1.082       .  S
C848        C849   1.374       .  D
C850        H855   1.083       .  S
C850        C851   1.367       .  D
C851        C916   1.495       .  S
C856        C857   1.403       .  A
C856        C861   1.419       .  A
C857        C858   1.396       .  A
C857        H866   1.082       .  S
C858        C859   1.426       .  A
C858        S862   1.817       .  S
C859        C860   1.410       .  A
C860        C861   1.407       .  A
C860        H867   1.079       .  S
C861        S863   1.801       .  S
S862        H865   1.406       .  S
S863        H864   1.408       .  S
C868        C869   1.398       .  A
C868        C873   1.409       .  A
C869        C870   1.395       .  A
C869        H878   1.084       .  S
C870        C871   1.419       .  A
C870        S874   1.804       .  S
C871        C872   1.408       .  A
C872        C873   1.403       .  A
C872        H879   1.083       .  S
C873        S875   1.800       .  S
S874        H877   1.408       .  S
S875        H876   1.403       .  S
C880        C881   1.402       .  A
C880        C885   1.408       .  A
C881        C882   1.403       .  A
C881        H890   1.083       .  S
C882        C883   1.414       .  A
C882       S1243   1.803       .  S
C883        C884   1.409       .  A
C884        C885   1.401       .  A
C884        H891   1.084       .  S
C885        S887   1.801       .  S
S886       C1239   1.803   1_545  S
S886        H889   1.407       .  S
S887        H888   1.405       .  S
C892        C893   1.408       .  A
C892        C897   1.417       .  A
C893        C894   1.402       .  A
C893        H902   1.083       .  S
C894        C895   1.420       .  A
C894        S898   1.805       .  S
C895        C896   1.410       .  A
C896        C897   1.399       .  A
C896        H903   1.083       .  S
C897        S899   1.803       .  S
S898        H901   1.405       .  S
S899        H900   1.408       .  S
C904       C1262   1.398       .  A
C904        C909   1.413       .  A
C905       C1261   1.398   1_545  A
C905        C906   1.395       .  A
C905        H914   1.084       .  S
C906        C907   1.417       .  A
C906        S910   1.806       .  S
C907        C908   1.403       .  A
C908       C1266   1.404   1_545  A
C908        H915   1.084       .  S
C909       C1265   1.404       .  A
C909        S911   1.803       .  S
S910        H913   1.404       .  S
S911        H912   1.406       .  S
C916        C917   1.406       .  A
C916        C921   1.416       .  A
C917        H926   1.084       .  S
C918        C919   1.414       .  A
C918        S922   1.803       .  S
C920        C921   1.406       .  A
C920        H927   1.082       .  S
C921        S923   1.806       .  S
S922        H925   1.407       .  S
S923        H924   1.406       .  S
C928        C929   1.404       .  A
C928        C933   1.419       .  A
C929        C930   1.400       .  A
C929        H938   1.084       .  S
C930        C931   1.418       .  A
C930        S934   1.805       .  S
C931        C932   1.402       .  A
C932        C933   1.402       .  A
C932        H939   1.078       .  S
C933        S935   1.803       .  S
S934        H937   1.407       .  S
S935        H936   1.408       .  S
C940        C941   1.403       .  A
C940        C945   1.418       .  A
C941        C942   1.401       .  A
C941        H950   1.084       .  S
C942        C943   1.415       .  A
C942        S946   1.803       .  S
C943        C944   1.399       .  A
C944        C945   1.400       .  A
C944        H951   1.079       .  S
C945        S947   1.804       .  S
S946        H949   1.406       .  S
S947        H948   1.407       .  S
C952        C953   1.404       .  A
C952        C957   1.419       .  A
C953        C954   1.399       .  A
C953        H962   1.084       .  S
C954        C955   1.422       .  A
C954        S958   1.804       .  S
C955        C956   1.409       .  A
C956        C957   1.398       .  A
C956        H963   1.082       .  S
C957       S1316   1.803   1_545  S
S958        H961   1.402       .  S
S959       C1314   1.803       .  S
S959        H960   1.408       .  S
C964        C965   1.404       .  A
C964        C969   1.414       .  A
C965        C966   1.407       .  A
C965        H974   1.084       .  S
C966        C967   1.418       .  A
C966        S970   1.798       .  S
C967        C968   1.406       .  A
C968        C969   1.393       .  A
C968        H975   1.084       .  S
C969        S971   1.808       .  S
S970       H1330   1.408       .  S
S971        H972   1.403       .  S
H973       S1327   1.408       .  S
C976        C977   1.404       .  A
C976        C981   1.411       .  A
C977        C978   1.406       .  A
C977        H986   1.083       .  S
C978        C979   1.414       .  A
C978        S982   1.804       .  S
C979        C980   1.406       .  A
C980        C981   1.400       .  A
C980        H987   1.084       .  S
S982        H985   1.407       .  S
S983        H984   1.406       .  S
C988        C989   1.399       .  A
C988        C993   1.406       .  A
C989        C990   1.403       .  A
C989        H998   1.084       .  S
C990        C991   1.426       .  A
C990        S994   1.806       .  S
C991        C992   1.414       .  A
C992        C993   1.397       .  A
C992        H999   1.080       .  S
C993       S1352   1.805       .  S
S994        H997   1.401       .  S
S995       C1350   1.805   1_545  S
S995        H996   1.405       .  S
C1000      C1001   1.404       .  A
C1000      C1005   1.412       .  A
C1001      C1002   1.398       .  A
C1001      H1010   1.084       .  S
C1002      C1003   1.410       .  A
C1003      C1004   1.405       .  A
C1004      C1005   1.398       .  A
C1004      H1011   1.084       .  S
C1005      S1007   1.803       .  S
S1006      H1009   1.402       .  S
S1007      H1008   1.407       .  S
C1012      C1013   1.403       .  A
C1012      C1017   1.410       .  A
C1013      C1014   1.407       .  A
C1013      H1022   1.082       .  S
C1014      C1015   1.422       .  A
C1014      S1018   1.811       .  S
C1015      C1016   1.411       .  A
C1016      C1017   1.394       .  A
C1016      H1023   1.073   1_545  S
C1017      S1019   1.806   1_545  S
S1018      H1021   1.406       .  S
S1019      H1020   1.408   1_565  S
C1024      C1025   1.398       .  A
C1024      C1029   1.411       .  A
C1025      C1026   1.398       .  A
C1025      H1034   1.083       .  S
C1026      C1027   1.417       .  A
C1027      C1028   1.405       .  A
C1028      C1029   1.404       .  A
C1028      H1035   1.084       .  S
C1029      S1031   1.803       .  S
S1030      H1033   1.406       .  S
S1031      H1032   1.406       .  S
C1036      C1037   1.415       .  A
C1036      C1041   1.425       .  A
C1037      C1038   1.399       .  A
C1037      H1046   1.080       .  S
C1038      C1039   1.406       .  A
C1038      S1042   1.805       .  S
C1039      C1040   1.401       .  A
C1040      C1041   1.406       .  A
C1040      H1047   1.084       .  S
C1041      S1043   1.805       .  S
S1042      H1045   1.405       .  S
S1043      H1044   1.402       .  S
C1048      C1053   1.419       .  A
C1049      C1050   1.400       .  A
C1049      H1058   1.084       .  S
C1050      C1051   1.414       .  A
C1050      S1054   1.804       .  S
C1051      C1052   1.405       .  A
C1052      H1059   1.084       .  S
C1053      S1055   1.801   1_455  S
S1054      H1057   1.403       .  S
S1055      H1056   1.407       .  S
C1060      C1061   1.402       .  A
C1060      C1065   1.415       .  A
C1061      C1062   1.391       .  A
C1061      H1070   1.083       .  S
C1062      C1420   1.416       .  A
C1062      S1066   1.806       .  S
C1063      C1419   1.417   1_545  A
C1063      C1064   1.407       .  A
C1064      C1422   1.407   1_545  A
C1064      H1071   1.084       .  S
C1065      C1421   1.407       .  A
C1065      S1067   1.800       .  S
S1066      H1426   1.408       .  S
S1067      H1068   1.406       .  S
H1069      S1423   1.408   1_545  S
Zn1072     O1076   1.953       .  S
Zn1072     O1077   2.026       .  S
Zn1072     O1081   2.018       .  S
Zn1072     O1088   2.026       .  S
Zn1073     O1076   1.954       .  S
Zn1073     O1078   2.008       .  S
Zn1073     O1080   2.002       .  S
Zn1073     O1084   2.026       .  S
Zn1074     O1076   1.983       .  S
Zn1074     O1079   2.066       .  S
Zn1074     O1082   2.050       .  S
Zn1074     O1085   2.053       .  S
Zn1075     O1076   1.942       .  S
Zn1075     O1083   1.982       .  S
Zn1075     O1086   2.002       .  S
Zn1075     O1087   2.005       .  S
O1077      C1089   1.276       .  A
O1078      C1090   1.273       .  A
O1079      C1091   1.279       .  A
O1080      C1089   1.272       .  A
O1081      C1091   1.275       .  A
O1082      C1090   1.277       .  A
O1083      C1092   1.270       .  A
O1084      C1093   1.273       .  A
O1085      C1092   1.278       .  A
O1086      C1093   1.270       .  A
O1087      C1094   1.270       .  A
O1088      C1094   1.273       .  A
C1089      C1357   1.476       .  S
C1090      C1396   1.474       .  S
C1091      C1405   1.499   1_655  S
C1092      C1420   1.483       .  S
C1093      C1369   1.481       .  S
C1094      C1381   1.469       .  S
C1095      C1096   1.542       .  S
C1095      C1101   1.542       .  S
C1095      C1099   1.534       .  S
C1095      C1393   1.548       .  S
C1096      H1103   1.084       .  S
C1096      C1097   1.366       .  D
C1097      C1098   1.541       .  S
C1097      C1408   1.493       .  S
C1098      C1102   1.538       .  S
C1098      C1100   1.552       .  S
C1098      H1104   1.106       .  S
C1099      H1105   1.082       .  S
C1099      C1100   1.374       .  D
C1100      C1159   1.501       .  S
C1101      H1106   1.084       .  S
C1101      C1102   1.362       .  D
C1102      C1417   1.489       .  S
C1107      C1108   1.531       .  S
C1107      C1111   1.533       .  S
C1107      C1372   1.542       .  S
C1108      H1115   1.086       .  S
C1109      C1384   1.485       .  S
C1110      C1114   1.535       .  S
C1110      C1112   1.549   1_665  S
C1110      H1116   1.106       .  S
C1111      H1117   1.081       .  S
C1113      H1118   1.079       .  S
C1114      C1360   1.478       .  S
Zn1119     O1124   2.009       .  S
Zn1120     O1123   1.985       .  S
Zn1121     O1126   2.018       .  S
Zn1121     O1129   2.018       .  S
Zn1122     O1133   1.988       .  S
Zn1122     O1134   2.002       .  S
O1124      C1136   1.273       .  A
O1125      C1137   1.276       .  A
O1126      C1138   1.272       .  A
O1127      C1136   1.275       .  A
O1128      C1138   1.276       .  A
O1129      C1137   1.274       .  A
O1130      C1139   1.269       .  A
O1131      C1140   1.275       .  A
O1132      C1139   1.276       .  A
O1133      C1140   1.271       .  A
O1134      C1141   1.271       .  A
O1135      C1141   1.276       .  A
C1136      C1345   1.470       .  S
C1137      C1333   1.480       .  S
C1138      C1285   1.490       .  S
C1139      C1309   1.492       .  S
C1140      C1324   1.491       .  S
C1141      C1297   1.483       .  S
C1142      C1143   1.542       .  S
C1142      C1148   1.533       .  S
C1142      C1146   1.535       .  S
C1142      C1312   1.539       .  S
C1143      H1150   1.084       .  S
C1143      C1144   1.364       .  D
C1144      C1145   1.544       .  S
C1144      C1288   1.496       .  S
C1145      C1149   1.545       .  S
C1145      C1147   1.551       .  S
C1145      H1151   1.105       .  S
C1146      H1152   1.082       .  S
C1146      C1147   1.374       .  D
C1147      C1206   1.504       .  S
C1148      H1153   1.085       .  S
C1148      C1149   1.359       .  D
C1149      C1300   1.485       .  S
C1154      C1155   1.540       .  S
C1154      C1160   1.543       .  S
C1154      C1158   1.532       .  S
C1154      C1348   1.545       .  S
C1155      H1162   1.085       .  S
C1155      C1156   1.365       .  D
C1156      C1157   1.540       .  S
C1156      C1336   1.491       .  S
C1157      C1161   1.538       .  S
C1157      C1159   1.552       .  S
C1157      H1163   1.105       .  S
C1158      H1164   1.082       .  S
C1158      C1159   1.374       .  D
C1160      H1165   1.083       .  S
C1160      C1161   1.360       .  D
C1161      C1321   1.484       .  S
Zn1166     O1170   1.955       .  S
Zn1166     O1171   2.007       .  S
Zn1166     O1175   2.015       .  S
Zn1166     O1182   2.013       .  S
Zn1167     O1170   1.987       .  S
Zn1167     O1172   2.033       .  S
Zn1167     O1174   2.034       .  S
Zn1167     O1178   2.047       .  S
Zn1168     O1170   1.952       .  S
Zn1168     O1173   2.016       .  S
Zn1168     O1176   2.003       .  S
Zn1168     O1179   2.025       .  S
Zn1169     O1170   1.951       .  S
Zn1169     O1177   2.024       .  S
Zn1169     O1180   1.999       .  S
Zn1169     O1181   2.020       .  S
O1171      C1183   1.275       .  A
O1172      C1184   1.276       .  A
O1173      C1185   1.272       .  A
O1174      C1183   1.273       .  A
O1175      C1185   1.273       .  A
O1176      C1184   1.272       .  A
O1177      C1186   1.274       .  A
O1178      C1187   1.276       .  A
O1179      C1186   1.274       .  A
O1180      C1187   1.272       .  A
O1181      C1188   1.273       .  A
O1182      C1188   1.271       .  A
C1183      C1213   1.497       .  S
C1184      C1228   1.487       .  S
C1185      C1249   1.494       .  S
C1186      C1276   1.488       .  S
C1187      C1237   1.474       .  S
C1188      C1261   1.469       .  S
C1189      C1195   1.535       .  S
C1189      C1193   1.553       .  S
C1189      C1216   1.539       .  S
C1190      H1197   1.087       .  S
C1191      C1192   1.537       .  S
C1191      C1225   1.476       .  S
C1192      C1194   1.548       .  S
C1192      H1198   1.103       .  S
C1193      H1199   1.079       .  S
C1195      H1200   1.087       .  S
C1196      C1240   1.495       .  S
C1201      C1202   1.538       .  S
C1201      C1207   1.541       .  S
C1201      C1205   1.534       .  S
C1201      C1252   1.541       .  S
C1202      H1209   1.086       .  S
C1202      C1203   1.358       .  D
C1203      C1204   1.540       .  S
C1203      C1264   1.482       .  S
C1204      C1208   1.541       .  S
C1204      C1206   1.552       .  S
C1204      H1210   1.103       .  S
C1205      H1211   1.082       .  S
C1205      C1206   1.374       .  D
C1207      H1212   1.083       .  S
C1207      C1208   1.367       .  D
C1208      C1273   1.494       .  S
C1213      C1214   1.403       .  A
C1213      C1218   1.419       .  A
C1214      C1215   1.396       .  A
C1214      H1223   1.082       .  S
C1215      C1216   1.426       .  A
C1215      S1219   1.817       .  S
C1216      C1217   1.410       .  A
C1217      C1218   1.407       .  A
C1217      H1224   1.079       .  S
C1218      S1220   1.801       .  S
S1219      H1222   1.406       .  S
S1220      H1221   1.408       .  S
C1225      C1226   1.399       .  A
C1225      C1230   1.409       .  A
C1226      C1227   1.395       .  A
C1226      H1235   1.084       .  S
C1227      C1228   1.420       .  A
C1227      S1231   1.804       .  S
C1228      C1229   1.408       .  A
C1229      C1230   1.402       .  A
C1229      H1236   1.083       .  S
C1230      S1232   1.800       .  S
S1231      H1234   1.408       .  S
S1232      H1233   1.403       .  S
C1237      C1238   1.402       .  A
C1237      C1242   1.408       .  A
C1238      C1239   1.403       .  A
C1238      H1247   1.083       .  S
C1239      C1240   1.414       .  A
C1240      C1241   1.410       .  A
C1241      C1242   1.401       .  A
C1241      H1248   1.084       .  S
C1242      S1244   1.801       .  S
S1243      H1246   1.407       .  S
S1244      H1245   1.405       .  S
C1249      C1250   1.408       .  A
C1249      C1254   1.417       .  A
C1250      C1251   1.402       .  A
C1250      H1259   1.083       .  S
C1251      C1252   1.420       .  A
C1251      S1255   1.805       .  S
C1252      C1253   1.409       .  A
C1253      C1254   1.398       .  A
C1253      H1260   1.083       .  S
C1254      S1256   1.803       .  S
S1255      H1258   1.405       .  S
S1256      H1257   1.408       .  S
C1261      C1266   1.413       .  A
C1262      C1263   1.395       .  A
C1262      H1271   1.084       .  S
C1263      C1264   1.417       .  A
C1263      S1267   1.806       .  S
C1264      C1265   1.403       .  A
C1265      H1272   1.084       .  S
C1266      S1268   1.803       .  S
S1267      H1270   1.405       .  S
S1268      H1269   1.406       .  S
C1273      C1274   1.406       .  A
C1273      C1278   1.416       .  A
C1274      H1283   1.084       .  S
C1275      C1276   1.414       .  A
C1275      S1279   1.803       .  S
C1277      C1278   1.406       .  A
C1277      H1284   1.082       .  S
C1278      S1280   1.805       .  S
S1279      H1282   1.407       .  S
S1280      H1281   1.407       .  S
C1285      C1286   1.404       .  A
C1285      C1290   1.419       .  A
C1286      C1287   1.400       .  A
C1286      H1295   1.084       .  S
C1287      C1288   1.418       .  A
C1287      S1291   1.805       .  S
C1288      C1289   1.402       .  A
C1289      C1290   1.403       .  A
C1289      H1296   1.079       .  S
C1290      S1292   1.803       .  S
S1291      H1294   1.407       .  S
S1292      H1293   1.408       .  S
C1297      C1298   1.403       .  A
C1297      C1302   1.417       .  A
C1298      C1299   1.402       .  A
C1298      H1307   1.084       .  S
C1299      C1300   1.415       .  A
C1299      S1303   1.803       .  S
C1300      C1301   1.399       .  A
C1301      C1302   1.400       .  A
C1301      H1308   1.079       .  S
C1302      S1304   1.804       .  S
S1303      H1306   1.406       .  S
S1304      H1305   1.407       .  S
C1309      C1310   1.405       .  A
C1309      C1314   1.419       .  A
C1310      C1311   1.400       .  A
C1310      H1319   1.083       .  S
C1311      C1312   1.422       .  A
C1311      S1315   1.804       .  S
C1312      C1313   1.408       .  A
C1313      C1314   1.398       .  A
C1313      H1320   1.082       .  S
S1315      H1318   1.402       .  S
S1316      H1317   1.408       .  S
C1321      C1322   1.404       .  A
C1321      C1326   1.414       .  A
C1322      C1323   1.407       .  A
C1322      H1331   1.084       .  S
C1323      C1324   1.418       .  A
C1323      S1327   1.798       .  S
C1324      C1325   1.406       .  A
C1325      C1326   1.393       .  A
C1325      H1332   1.084       .  S
C1326      S1328   1.808       .  S
S1328      H1329   1.403       .  S
C1333      C1334   1.404       .  A
C1333      C1338   1.411       .  A
C1334      C1335   1.406       .  A
C1334      H1343   1.083       .  S
C1335      C1336   1.414       .  A
C1335      S1339   1.804       .  S
C1336      C1337   1.406       .  A
C1337      C1338   1.400       .  A
C1337      H1344   1.084       .  S
S1339      H1342   1.407       .  S
S1340      H1341   1.406       .  S
C1345      C1346   1.399       .  A
C1345      C1350   1.406       .  A
C1346      C1347   1.403       .  A
C1346      H1355   1.084       .  S
C1347      C1348   1.426       .  A
C1347      S1351   1.806       .  S
C1348      C1349   1.414       .  A
C1349      C1350   1.398       .  A
C1349      H1356   1.080       .  S
S1351      H1354   1.401       .  S
S1352      H1353   1.405       .  S
C1357      C1358   1.404       .  A
C1357      C1362   1.412       .  A
C1358      C1359   1.398       .  A
C1358      H1367   1.084       .  S
C1359      C1360   1.410       .  A
C1360      C1361   1.404       .  A
C1361      C1362   1.399       .  A
C1361      H1368   1.084       .  S
C1362      S1364   1.803       .  S
S1363      H1366   1.402       .  S
S1364      H1365   1.407       .  S
C1369      C1370   1.403       .  A
C1369      C1374   1.411       .  A
C1370      C1371   1.407       .  A
C1370      H1379   1.083       .  S
C1371      C1372   1.422       .  A
C1371      S1375   1.811       .  S
C1372      C1373   1.411       .  A
C1373      C1374   1.395       .  A
C1373      H1380   1.075       .  S
C1374      S1376   1.805       .  S
S1375      H1378   1.406       .  S
S1376      H1377   1.408       .  S
C1381      C1382   1.398       .  A
C1381      C1386   1.411       .  A
C1382      C1383   1.399       .  A
C1382      H1391   1.083       .  S
C1383      C1384   1.417       .  A
C1384      C1385   1.404       .  A
C1385      C1386   1.404       .  A
C1385      H1392   1.084       .  S
C1386      S1388   1.803       .  S
S1387      H1390   1.406       .  S
S1388      H1389   1.406       .  S
C1393      C1394   1.415       .  A
C1393      C1398   1.425       .  A
C1394      C1395   1.399       .  A
C1394      H1403   1.080       .  S
C1395      C1396   1.406       .  A
C1395      S1399   1.805       .  S
C1396      C1397   1.401       .  A
C1397      C1398   1.405       .  A
C1397      H1404   1.084       .  S
C1398      S1400   1.805       .  S
S1399      H1402   1.405       .  S
S1400      H1401   1.402       .  S
C1405      C1410   1.419       .  A
C1406      C1407   1.400       .  A
C1406      H1415   1.084       .  S
C1407      C1408   1.414       .  A
C1407      S1411   1.804       .  S
C1408      C1409   1.405       .  A
C1409      H1416   1.084       .  S
C1410      S1412   1.801   1_455  S
S1411      H1414   1.403       .  S
S1412      H1413   1.407       .  S
C1417      C1418   1.402       .  A
C1417      C1422   1.415       .  A
C1418      C1419   1.391       .  A
C1418      H1427   1.083       .  S
C1419      S1423   1.806       .  S
C1420      C1421   1.407       .  A
C1421      H1428   1.084       .  S
C1422      S1424   1.800       .  S
S1424      H1425   1.406       .  S
