geometry optimzed in LAMMPS
_audit_creation_date              2020-11-30 
_audit_creation_method            'lammps2cif' 
_symmetry_space_group_name_H-M    'P1' 
_symmetry_Int_Tables_number       1 
_symmetry_cell_setting            triclinic 
loop_ 
_symmetry_equiv_pos_as_xyz 
  x,y,z 
_cell_length_a                    25.8847617 
_cell_length_b                    25.789395003009023 
_cell_length_c                    38.482744801119196 
_cell_angle_alpha                 91.1845026480777 
_cell_angle_beta                  89.10211708085353 
_cell_angle_gamma                 92.15388587376395 
loop_ 
_atom_site_label 
_atom_site_type_symbol 
_atom_site_fract_x 
_atom_site_fract_y 
_atom_site_fract_z 
_atom_site_charge 
N1          N  0.93443790  0.44375518  0.03778170    -0.36200
N2          N  0.01075988  0.44034870  0.46681651    -0.56800
N3          N  0.00349670  0.55309634  0.46224783    -0.36200
N4          N  0.92745939  0.55768777  0.03574335    -0.56800
C5          C  0.93189868  0.39155263  0.03282560     0.27400
C6          C  0.91568987  0.45419090  0.06990659     0.27400
C7          C  0.01441008  0.53892665  0.42903442     0.27400
C8          C  0.98262456  0.60042578  0.46149120     0.27400
C9          C  0.01720305  0.39074314  0.47579365     0.36000
C10         C  0.04108203  0.44880272  0.43866796     0.36000
C11         C  0.92569131  0.55120947  0.07045750     0.36000
C12         C  0.93935088  0.60862482  0.03096197     0.36000
C13         C  0.91006630  0.36860730  0.06215015    -0.21500
C14         C  0.90033115  0.40813869  0.08567949    -0.21500
C15         C  0.99952260  0.57736364  0.40693026    -0.21500
C16         C  0.97992910  0.61643778  0.42746517    -0.21500
C17         C  0.05208595  0.36746130  0.45330599    -0.22500
C18         C  0.06732443  0.40440261  0.42968971    -0.22500
C19         C  0.93418674  0.59854193  0.08762636    -0.22500
C20         C  0.94356563  0.63471904  0.06265119    -0.22500
C21         C  0.98852548  0.36542441  0.50226661    -0.17900
C22         C  0.91952767  0.50309367  0.08715910    -0.17900
C23         C  0.94590270  0.63173258  0.99820381    -0.17900
C24         C  0.03969198  0.49339065  0.41841185    -0.17900
H25         H  0.90375260  0.32757302  0.06671713     0.15000
H26         H  0.88517801  0.40351438  0.11184014     0.15000
H27         H  0.00211751  0.57721065  0.37887959     0.15000
H28         H  0.96536653  0.65249055  0.41841322     0.15000
H29         H  0.06430300  0.32778538  0.45342982     0.13300
H30         H  0.09334087  0.39874868  0.40774601     0.13300
H31         H  0.93460534  0.60631350  0.11533748     0.13300
H32         H  0.95350143  0.67529879  0.06751317     0.13300
H33         H  0.95447587  0.47069029  0.02258539     0.26600
H34         H  0.01521103  0.53432131  0.48431146     0.26600
N35         N  0.06818487  0.45938354  0.28520186    -0.36200
N36         N  0.07070538  0.57353918  0.27952828    -0.56800
N37         N  0.01836223  0.55948052  0.21463299    -0.36200
N38         N  0.02236455  0.44628692  0.21959309    -0.56800
C39         C  0.09956074  0.47536019  0.31115537     0.27400
C40         C  0.07446681  0.40785458  0.27991486     0.27400
C41         C  0.03185100  0.61062996  0.21398243     0.27400
C42         C  0.01114088  0.54327331  0.18143645     0.27400
C43         C  0.08179076  0.56948428  0.31349464     0.36000
C44         C  0.05486782  0.62243960  0.27552667     0.36000
C45         C  0.01496582  0.39745533  0.23091131     0.36000
C46         C  0.99079199  0.45049374  0.19252147     0.36000
C47         C  0.12629298  0.43355167  0.32274154    -0.21500
C48         C  0.11077960  0.39090058  0.30274433    -0.21500
C49         C  0.03324433  0.62729289  0.17999343    -0.21500
C50         C  0.02111055  0.58439143  0.15934062    -0.21500
C51         C  0.07517528  0.61669354  0.33071178    -0.22500
C52         C  0.05827615  0.65028408  0.30658270    -0.22500
C53         C  0.97803549  0.37065721  0.21111758    -0.22500
C54         C  0.96312032  0.40427312  0.18639808    -0.22500
C55         C  0.09548190  0.52315031  0.32935991    -0.17900
C56         C  0.04503191  0.37588178  0.25668230    -0.17900
C57         C  0.99109524  0.49371427  0.17120720    -0.17900
C58         C  0.03937358  0.64260223  0.24374447    -0.17900
H59         H  0.15229358  0.43347758  0.34449785     0.15000
H60         H  0.12326355  0.35166754  0.30562034     0.15000
H61         H  0.04228597  0.66611057  0.17100925     0.15000
H62         H  0.01935338  0.58363765  0.13129151     0.15000
H63         H  0.08132249  0.62617408  0.35786954     0.13300
H64         H  0.04905220  0.69038764  0.31147638     0.13300
H65         H  0.96402774  0.33084714  0.21376984     0.13300
H66         H  0.93553477  0.39560959  0.16607581     0.13300
H67         H  0.03820986  0.48085355  0.27599803     0.26600
H68         H  0.00821383  0.53848469  0.23670254     0.26600
O69         O  0.96926039  0.02764282  0.41217072    -0.78100
C70         C  0.84624363  0.99856010  0.00206706     0.83000
O71         O  0.01137501  0.12309680  0.02274792    -0.79200
O72         O  0.96665765  0.97451098  0.09089077    -0.80700
O73         O  0.01646712  0.87932412  0.47288731    -0.80500
O74         O  0.03262286  0.97241910  0.41071599    -0.79100
Zn75       Zn  0.95520912  0.03876939  0.46686923     1.55700
O76         O  0.95103499  0.88196584  0.02373330    -0.80500
Cd77       Cd  0.03938896  0.95648212  0.46553687     1.59700
Cd78       Cd  0.03290711  0.04784501  0.03152026     1.59600
O79         O  0.11645978  0.96724846  0.47983694    -0.80500
O80         O  0.98895481  0.00006077  0.00057935    -1.91000
Cd81       Cd  0.94568868  0.96063246  0.03651659     1.59900
O82         O  0.10899441  0.03883812  0.01640250    -0.80500
O83         O  0.86849653  0.97815313  0.02771097    -0.79100
C84         C  0.98085989  0.14232042  0.00105293     0.83400
C85         C  0.00167083  0.00082500  0.39451157     0.83100
O86         O  0.87943946  0.02249163  0.47802894    -0.78100
C87         C  0.97639819  0.85570068  0.00111472     0.83900
O88         O  0.96851397  0.11482130  0.47953328    -0.78200
C89         C  0.13211606  0.00466795  0.99808868     0.84000
C90         C  0.00029581  0.00554003  0.10548428     0.84300
O91         O  0.02864356  0.03586333  0.08663370    -0.80600
O92         O  0.98054348  0.03924039  0.16374342    -0.78100
C93         C  0.87024909  0.01348968  0.24762870     0.83000
O94         O  0.04457225  0.12678133  0.27802132    -0.79200
O95         O  0.97317899  0.97427686  0.33598244    -0.80700
O96         O  0.04388907  0.89198196  0.22568078    -0.80500
O97         O  0.03763014  0.97765120  0.15986076    -0.79100
Zn98       Zn  0.97437445  0.05516071  0.21808920     1.55700
O99         O  0.98134935  0.88540063  0.26648529    -0.80500
Cd100      Cd  0.05511752  0.96959678  0.21444404     1.59700
Cd101      Cd  0.05385376  0.04862047  0.28563379     1.59600
O102        O  0.13275118  0.98970290  0.22456645    -0.80500
O103        O  0.01113618  0.00918492  0.24926315    -1.91000
Cd104      Cd  0.96513455  0.96287554  0.27984302     1.59900
O105        O  0.13113653  0.03556410  0.27462407    -0.80500
O106        O  0.88952783  0.97885170  0.26643388    -0.79100
C107        C  0.02446350  0.15232960  0.25398541     0.83400
C108        C  0.00633523  0.00733185  0.14501744     0.83100
O109        O  0.89838377  0.04551374  0.23003700    -0.78100
C110        C  0.01417189  0.86482427  0.24557147     0.83900
O111        O  0.99899709  0.13028589  0.22912826    -0.78200
C112        C  0.15591829  0.01388090  0.24962458     0.84000
C113        C  0.00404660  0.00296580  0.35469022     0.84300
O114        O  0.03761247  0.03310752  0.33969396    -0.80600
N115        N  0.54404958  0.02879141  0.03299425    -0.36200
N116        N  0.55362531  0.99042102  0.46989492    -0.56800
N117        N  0.44012943  0.98260095  0.47058370    -0.36200
N118        N  0.43102165  0.03665891  0.03018410    -0.56800
C119        C  0.59502905  0.03438091  0.02484053     0.27400
C120        C  0.53398852  0.06299985  0.05896219     0.27400
C121        C  0.45132235  0.98802120  0.43645171     0.27400
C122        C  0.39037222  0.99560361  0.47548337     0.27400
C123        C  0.60394126  0.98321535  0.47627157     0.36000
C124        C  0.54389007  0.96791333  0.43870607     0.36000
C125        C  0.43914469  0.04763424  0.06415085     0.36000
C126        C  0.37992983  0.02458769  0.02748484     0.36000
C127        C  0.61760459  0.07299265  0.04569903    -0.21500
C128        C  0.57900731  0.09109400  0.06724541    -0.21500
C129        C  0.40790327  0.00369977  0.41933317    -0.21500
C130        C  0.36932662  0.00833968  0.44403545    -0.21500
C131        C  0.62625641  0.95526871  0.44926984    -0.22500
C132        C  0.58810154  0.94571927  0.42533166    -0.22500
C133        C  0.39292011  0.04399345  0.08285154    -0.22500
C134        C  0.35534762  0.02942303  0.05956039    -0.22500
C135        C  0.62165170  0.00313007  0.00041287    -0.17900
C136        C  0.48735416  0.06272979  0.07840413    -0.17900
C137        C  0.35507791  0.01114276  0.99607267    -0.17900
C138        C  0.49864551  0.97593222  0.42017819    -0.17900
H139        H  0.65770887  0.08646456  0.04559943     0.15000
H140        H  0.58389849  0.12175456  0.08652193     0.14000
H141        H  0.40409220  0.01037661  0.39182777     0.15000
H142        H  0.33035388  0.02004935  0.43940110     0.15000
H143        H  0.66595154  0.94381727  0.44675409     0.13300
H144        H  0.59260324  0.92489571  0.40092189     0.13300
H145        H  0.38680743  0.05148612  0.11036717     0.13300
H146        H  0.31471406  0.02274864  0.06564718     0.13300
H147        H  0.51900584  0.99842657  0.02508687     0.26600
H148        H  0.46370799  0.96641483  0.48883992     0.26600
N149        N  0.57042534  0.99363089  0.27600309    -0.36200
N150        N  0.57195965  0.06038499  0.21643409    -0.56800
N151        N  0.45812528  0.05674610  0.21910937    -0.36200
N152        N  0.45701928  0.99598703  0.27991819    -0.56800
C153        C  0.62089891  0.00919016  0.27407923     0.27400
C154        C  0.56077289  0.97935216  0.30913741     0.27400
C155        C  0.46786856  0.09152468  0.19393720     0.27400
C156        C  0.40736300  0.05898674  0.22787709     0.27400
C157        C  0.62148478  0.04521973  0.21528975     0.36000
C158        C  0.56178153  0.07691844  0.18427282     0.36000
C159        C  0.46569942  0.96219441  0.30519269     0.36000
C160        C  0.40564686  0.99334070  0.27415468     0.36000
C161        C  0.64370965  0.00407872  0.30605053    -0.21500
C162        C  0.60577225  0.98541516  0.32818913    -0.21500
C163        C  0.42290955  0.11649076  0.18657832    -0.21500
C164        C  0.38474639  0.09625588  0.20824273    -0.21500
C165        C  0.64323654  0.05340350  0.18273275    -0.22500
C166        C  0.60540007  0.07341904  0.16307015    -0.22500
C167        C  0.41955245  0.93806418  0.31585804    -0.22500
C168        C  0.38145602  0.95749222  0.29592902    -0.22500
C169        C  0.64749964  0.02532683  0.24371440    -0.17900
C170        C  0.51301539  0.95936752  0.32241531    -0.17900
C171        C  0.38026780  0.02528040  0.25097696    -0.17900
C172        C  0.51357864  0.09442953  0.17352029    -0.17900
H173        H  0.68349698  0.01321403  0.31282089     0.15000
H174        H  0.61105586  0.97748348  0.35526091     0.15000
H175        H  0.41780217  0.14486388  0.16669766     0.15000
H176        H  0.34455675  0.10646148  0.20857701     0.15000
H177        H  0.68195986  0.04498125  0.17386161     0.13300
H178        H  0.60963345  0.08357990  0.13614199     0.13300
H179        H  0.41387378  0.91041619  0.33648165     0.13300
H180        H  0.34058282  0.94734434  0.29788068     0.13300
H181        H  0.54547812  0.98835008  0.25520833     0.26600
H182        H  0.48277402  0.02777949  0.22547579     0.26600
C183        C  0.50355890  0.98396280  0.38258278    -0.16000
C184        C  0.51024752  0.94555428  0.35935457    -0.31200
H185        H  0.49943961  0.02332536  0.37362483     0.13000
H186        H  0.51249021  0.90546244  0.36709751     0.13600
C187        C  0.50747090  0.10374907  0.13615966    -0.16000
C188        C  0.49046654  0.06340675  0.11659270    -0.31200
H189        H  0.51934266  0.14072365  0.12508752     0.13000
H190        H  0.47814647  0.02759038  0.12931080     0.13600
C191        C  0.29404087  0.04411700  0.27831890    -0.12900
C192        C  0.32276041  0.02311703  0.25058784     0.09200
C193        C  0.29667491  0.99941144  0.22244860    -0.12900
C194        C  0.24257650  0.99629770  0.22210486    -0.12900
C195        C  0.21344749  0.01713211  0.24986783     0.09200
C196        C  0.23992023  0.04126963  0.27794769    -0.12900
H197        H  0.31358727  0.06262983  0.30022940     0.13200
H198        H  0.31832648  0.98300459  0.20084212     0.13200
H199        H  0.22359925  0.97757448  0.20006549     0.13200
H200        H  0.21884408  0.05781650  0.29975855     0.13200
C201        C  0.78140561  0.97222149  0.25176320    -0.12900
C202        C  0.81340711  0.01637412  0.24572069     0.09200
C203        C  0.79064176  0.06311731  0.23736981    -0.12900
C204        C  0.73683734  0.06597663  0.23610243    -0.12900
C205        C  0.70487974  0.02188316  0.24244276     0.09200
C206        C  0.72772950  0.97482074  0.24974858    -0.12900
H207        H  0.79790795  0.93556141  0.25780416     0.13200
H208        H  0.81441522  0.09777038  0.23259784     0.13200
H209        H  0.72008148  0.10278398  0.23076842     0.13200
H210        H  0.70380771  0.94027161  0.25456412     0.13200
C211        C  0.22404076  0.95445339  0.48898346    -0.12900
C212        C  0.18909799  0.00684750  0.99666347     0.09200
C213        C  0.21687684  0.05315855  0.00510182    -0.12900
C214        C  0.27083486  0.05499307  0.00403588    -0.12900
C215        C  0.29782657  0.01036295  0.99509394     0.09200
C216        C  0.27786678  0.95338233  0.49104885    -0.12900
H217        H  0.20334679  0.92235161  0.47619637     0.13200
H218        H  0.19690732  0.08800425  0.01237242     0.13200
H219        H  0.29164099  0.09099199  0.01063134     0.13200
H220        H  0.29777907  0.92084838  0.47961290     0.13200
C221        C  0.77069064  0.02818345  0.47734738    -0.12900
C222        C  0.78869859  0.99941471  0.00162647     0.09200
C223        C  0.75880107  0.98445259  0.03086523    -0.12900
C224        C  0.70474254  0.98611990  0.03055870    -0.12900
C225        C  0.67931123  0.00243422  0.00096634     0.09200
C226        C  0.71681552  0.03106770  0.47849370    -0.12900
H227        H  0.79201764  0.04706468  0.45641908     0.13200
H228        H  0.77718312  0.97169715  0.05411029     0.13200
H229        H  0.68262678  0.97430888  0.05336620     0.13200
H230        H  0.69768916  0.05166099  0.45840605     0.13200
C231        C  0.07121665  0.73278598  0.23020883    -0.12900
C232        C  0.03123087  0.69916222  0.24182869     0.09200
C233        C  0.98495475  0.71988652  0.25444421    -0.12900
C234        C  0.97906200  0.77373558  0.25585028    -0.12900
C235        C  0.01920997  0.80763088  0.24424509     0.09200
C236        C  0.06514938  0.78642618  0.23115407    -0.12900
H237        H  0.10740382  0.71747432  0.22089979     0.13200
H238        H  0.95389453  0.69433734  0.26388083     0.13200
H239        H  0.94320950  0.78881677  0.26593580     0.13200
H240        H  0.09698792  0.81143759  0.22226504     0.13200
C241        C  0.05859950  0.28966917  0.22745348    -0.12900
C242        C  0.04619736  0.31821442  0.25782935     0.09200
C243        C  0.02860115  0.29149977  0.28739575    -0.12900
C244        C  0.02208199  0.23731477  0.28620831    -0.12900
C245        C  0.03169835  0.20928463  0.25520810     0.09200
C246        C  0.05046648  0.23580410  0.22594024    -0.12900
H247        H  0.07243782  0.30952369  0.20438290     0.13200
H248        H  0.01835076  0.31266805  0.31095223     0.13200
H249        H  0.00801153  0.21735259  0.30917124     0.13200
H250        H  0.05913406  0.21480251  0.20201537     0.13200
C251        C  0.05761022  0.48828870  0.38212297    -0.16000
C252        C  0.09226873  0.52159343  0.36769760    -0.31200
H253        H  0.03854629  0.45798180  0.36636784     0.13000
H254        H  0.10996387  0.55267867  0.38342170     0.13600
C255        C  0.92886881  0.50359400  0.12480756    -0.16000
C256        C  0.97330672  0.48510902  0.13553098    -0.31200
H257        H  0.90496959  0.52624921  0.14242293     0.13000
H258        H  0.99812830  0.46399582  0.11758892     0.13600
C259        C  0.91454003  0.72121209  0.01260635    -0.12900
C260        C  0.95102349  0.68949313  0.99626859     0.09200
C261        C  0.01398468  0.71503959  0.47348139    -0.12900
C262        C  0.01782455  0.76923154  0.47415949    -0.12900
C263        C  0.96744862  0.79854662  0.99910576     0.09200
C264        C  0.92302941  0.77507778  0.01445986    -0.12900
H265        H  0.88022042  0.70406289  0.02486465     0.13200
H266        H  0.04553871  0.69361760  0.46222910     0.13200
H267        H  0.05199388  0.78835039  0.46303312     0.13200
H268        H  0.89472903  0.79836901  0.02788206     0.13200
C269        C  0.01627106  0.28305700  0.52853627    -0.12900
C270        C  0.98851488  0.30791813  0.50315882     0.09200
C271        C  0.92786064  0.27410222  0.98255131    -0.12900
C272        C  0.93589512  0.22077850  0.98106257    -0.12900
C273        C  0.97230240  0.19892962  0.00267577     0.09200
C274        C  0.01815239  0.22889348  0.52828981    -0.12900
H275        H  0.03702167  0.30567294  0.54821353     0.13200
H276        H  0.90055543  0.29030545  0.96510927     0.13200
H277        H  0.91387065  0.19676010  0.96276527     0.13200
H278        H  0.04025558  0.21076092  0.54804271     0.13200
N279        N  0.96191019  0.44462998  0.53314695    -0.36200
N280        N  0.96944397  0.43905860  0.96697721    -0.56800
N281        N  0.96835374  0.55275309  0.96564989    -0.36200
N282        N  0.94829999  0.55696168  0.52814446    -0.56800
C283        C  0.95851664  0.39272528  0.52702768     0.27400
C284        C  0.93097272  0.45496896  0.56067640     0.27400
C285        C  0.97279080  0.53963488  0.93163326     0.27400
C286        C  0.95078136  0.60152709  0.96743438     0.27400
C287        C  0.97347964  0.38835539  0.97399292     0.36000
C288        C  0.99437815  0.44702431  0.93648488     0.36000
C289        C  0.94115098  0.55096047  0.56271334     0.36000
C290        C  0.95951659  0.60808799  0.52362770     0.36000
C291        C  0.92448299  0.36989423  0.55087156    -0.21500
C292        C  0.90743390  0.40927172  0.57237609    -0.21500
C293        C  0.95766153  0.58039172  0.91158534    -0.21500
C294        C  0.94356848  0.61943039  0.93425566    -0.21500
C295        C  0.00053177  0.36371501  0.94741103    -0.22500
C296        C  0.01376758  0.40094521  0.92362006    -0.22500
C297        C  0.94623873  0.59858010  0.57995884    -0.22500
C298        C  0.95835099  0.63464279  0.55526018    -0.22500
C299        C  0.95280108  0.36393234  0.00393826    -0.17900
C300        C  0.93129063  0.50293526  0.57893287    -0.17900
C301        C  0.96997275  0.63089098  0.49109369    -0.17900
C302        C  0.99409623  0.49369348  0.91826689    -0.17900
H303        H  0.91450553  0.32898925  0.55334360     0.15000
H304        H  0.88219288  0.40472558  0.59488303     0.15000
H305        H  0.95747154  0.58214601  0.88351371     0.15000
H306        H  0.93040701  0.65706379  0.92716690     0.15000
H307        H  0.00988709  0.32321622  0.94529989     0.13300
H308        H  0.03416113  0.39444732  0.89928434     0.13300
H309        H  0.94215124  0.60685388  0.60748371     0.13300
H310        H  0.96644556  0.67552908  0.56031107     0.13300
H311        H  0.98954686  0.47071268  0.52309761     0.26600
H312        H  0.98339432  0.53248882  0.98610395     0.26600
N313        N  0.04721701  0.43731924  0.78671032    -0.36200
N314        N  0.05537822  0.55120182  0.78323667    -0.56800
N315        N  0.00496198  0.54277803  0.71649035    -0.36200
N316        N  0.00063989  0.42914718  0.72011441    -0.56800
C317        C  0.07212771  0.44954506  0.81643437     0.27400
C318        C  0.04751812  0.38505776  0.78230147     0.27400
C319        C  0.02267170  0.59292185  0.71702562     0.27400
C320        C  0.99833309  0.52856791  0.68277410     0.27400
C321        C  0.06289227  0.54551972  0.81755572     0.36000
C322        C  0.04406920  0.60147023  0.77925362     0.36000
C323        C  0.99589734  0.37843758  0.72805474     0.36000
C324        C  0.97568485  0.43463603  0.69006904     0.36000
C325        C  0.08908467  0.40483135  0.83115234    -0.21500
C326        C  0.07374661  0.36411104  0.80960323    -0.21500
C327        C  0.02683099  0.61090385  0.68342297    -0.21500
C328        C  0.01267111  0.56994789  0.66180854    -0.21500
C329        C  0.05895640  0.59277405  0.83507880    -0.22500
C330        C  0.04755459  0.62839156  0.81072289    -0.22500
C331        C  0.96770366  0.35153654  0.70259804    -0.22500
C332        C  0.95455425  0.38722568  0.67873171    -0.22500
C333        C  0.07040232  0.49795531  0.83387302    -0.17900
C334        C  0.02043687  0.35567630  0.75629800    -0.17900
C335        C  0.97781222  0.48003706  0.67043144    -0.17900
C336        C  0.03169330  0.62340473  0.74734501    -0.17900
H337        H  0.10821491  0.40175160  0.85579707     0.15000
H338        H  0.07893786  0.32358104  0.81472201     0.15000
H339        H  0.03950086  0.64916963  0.67512926     0.15000
H340        H  0.01349357  0.57052223  0.63375624     0.15000
H341        H  0.06307678  0.60057401  0.86266683     0.13300
H342        H  0.04153349  0.66913820  0.81584888     0.13300
H343        H  0.95890520  0.31031564  0.70041217     0.13300
H344        H  0.93372401  0.37879971  0.65497745     0.13300
H345        H  0.02454735  0.46254217  0.77382621     0.26600
H346        H  0.99251371  0.52164211  0.73794182     0.26600
O347        O  0.96527425  0.02299178  0.91234393    -0.78100
C348        C  0.85386410  0.99868353  0.50194284     0.83000
O349        O  0.02354420  0.11963660  0.52390052    -0.79200
O350        O  0.97020033  0.96419706  0.58863948    -0.80700
O351        O  0.00859190  0.87712018  0.97978636    -0.80500
O352        O  0.02405523  0.96301674  0.91382913    -0.79100
Zn353      Zn  0.94794970  0.03703747  0.96649543     1.55700
O354        O  0.95993149  0.87892243  0.51766895    -0.80500
Cd355      Cd  0.03092194  0.95350436  0.96903154     1.59700
Cd356      Cd  0.03967098  0.04273415  0.53345851     1.59600
O357        O  0.10784387  0.96867204  0.98096138    -0.80500
O358        O  0.99654882  0.99894895  0.49946199    -1.91000
Cd359      Cd  0.95296471  0.95581314  0.53341423     1.59900
O360        O  0.11655613  0.02930414  0.52149756    -0.80500
O361        O  0.87623004  0.97353816  0.52538107    -0.79100
C362        C  0.99490039  0.14121183  0.50200401     0.83400
C363        C  0.99604949  0.99243127  0.89617947     0.83100
O364        O  0.87210879  0.01875632  0.97680856    -0.78100
C365        C  0.98547726  0.85538922  0.49382652     0.83900
O366        O  0.95673510  0.11405274  0.97841800    -0.78200
C367        C  0.14027271  0.99776604  0.50136698     0.84000
C368        C  0.00107717  0.99531362  0.60555098     0.84300
O369        O  0.02952601  0.02830955  0.58867145    -0.80600
O370        O  0.97526386  0.02209085  0.66473293    -0.78100
C371        C  0.86506528  0.98470659  0.75209168     0.83000
O372        O  0.04141810  0.10849533  0.77490593    -0.79200
O373        O  0.97136343  0.95830443  0.83871390    -0.80700
O374        O  0.03809321  0.87267458  0.72563251    -0.80500
O375        O  0.03494285  0.96309847  0.66004704    -0.79100
Zn376      Zn  0.96525179  0.03273046  0.71991010     1.55700
O377        O  0.98302652  0.86711025  0.77114715    -0.80500
Cd378      Cd  0.04978782  0.95088405  0.71480739     1.59700
Cd379      Cd  0.04969766  0.03125197  0.78558494     1.59600
O380        O  0.12737476  0.96944143  0.72524059    -0.80500
O381        O  0.00638553  0.98995467  0.75045457    -1.91000
Cd382      Cd  0.96409409  0.94336035  0.78316774     1.59900
O383        O  0.12645033  0.01529479  0.77535191    -0.80500
O384        O  0.88728438  0.95283516  0.77139027    -0.79100
C385        C  0.01277904  0.13205830  0.75419716     0.83400
C386        C  0.00386669  0.99333335  0.64543427     0.83100
O387        O  0.89028265  0.01673994  0.73271406    -0.78100
C388        C  0.01216781  0.84612939  0.74807603     0.83900
O389        O  0.98222912  0.10816938  0.73297586    -0.78200
C390        C  0.15078118  0.99279602  0.75047774     0.84000
C391        C  0.99971678  0.99079253  0.85638062     0.84300
O392        O  0.03184300  0.02130708  0.84034342    -0.80600
N393        N  0.55322777  0.01476367  0.54174268    -0.36200
N394        N  0.54523319  0.98126481  0.96624348    -0.56800
N395        N  0.43141274  0.98090728  0.96449925    -0.36200
N396        N  0.43974073  0.01162356  0.54251476    -0.56800
C397        C  0.60268210  0.02805577  0.53292110     0.27400
C398        C  0.54138111  0.04200267  0.57084399     0.27400
C399        C  0.44384988  0.97239353  0.93074438     0.27400
C400        C  0.38278466  0.99821413  0.96553632     0.27400
C401        C  0.59470355  0.97357726  0.97485295     0.36000
C402        C  0.53465216  0.94906101  0.93911502     0.36000
C403        C  0.44933254  0.01378572  0.57680492     0.36000
C404        C  0.38933988  0.99715808  0.53942948     0.36000
C405        C  0.62256968  0.06446579  0.55651155    -0.21500
C406        C  0.58351707  0.07367892  0.58034441    -0.21500
C407        C  0.40226117  0.98341081  0.91009322    -0.21500
C408        C  0.36343442  0.99933572  0.93219630    -0.21500
C409        C  0.61560671  0.93596753  0.95326117    -0.22500
C410        C  0.57734684  0.92038163  0.93057698    -0.22500
C411        C  0.40479689  0.00072104  0.59573135    -0.22500
C412        C  0.36658066  0.99034907  0.57191175    -0.22500
C413        C  0.63020992  0.00592767  0.50481288    -0.17900
C414        C  0.49615083  0.03300625  0.59097482    -0.17900
C415        C  0.36331596  0.99461792  0.50756302    -0.17900
C416        C  0.49090890  0.95281354  0.91838194    -0.17900
H417        H  0.66086194  0.08283406  0.55629293     0.15000
H418        H  0.58567057  0.10142335  0.60168749     0.14000
H419        H  0.39988326  0.97976078  0.88207553     0.15000
H420        H  0.32554582  0.01096601  0.92460419     0.15000
H421        H  0.65431688  0.92156688  0.95365905     0.13300
H422        H  0.58035421  0.89107387  0.91028658     0.13300
H423        H  0.39988095  0.00055768  0.62372415     0.13300
H424        H  0.32653397  0.98002825  0.57781246     0.13300
H425        H  0.53109104  0.98378147  0.53132395     0.26600
H426        H  0.45329487  0.97134450  0.98575261     0.26600
N427        N  0.56297792  0.94907720  0.77927157    -0.36200
N428        N  0.56841153  0.02866603  0.72696346    -0.56800
N429        N  0.45475797  0.02864989  0.72755592    -0.36200
N430        N  0.44911702  0.95580452  0.78146443    -0.56800
C431        C  0.61380179  0.96371346  0.77956442     0.27400
C432        C  0.55117608  0.93027406  0.81104842     0.27400
C433        C  0.46696199  0.06763282  0.70584021     0.27400
C434        C  0.40380556  0.03099829  0.73549000     0.27400
C435        C  0.61731802  0.01188608  0.72505145     0.36000
C436        C  0.56016221  0.05105625  0.69623710     0.36000
C437        C  0.45578860  0.91824835  0.80455789     0.36000
C438        C  0.39794265  0.95640818  0.77524550     0.36000
C439        C  0.63491027  0.95226787  0.81114347    -0.21500
C440        C  0.59552417  0.93101800  0.83090417    -0.21500
C441        C  0.42340865  0.09560430  0.69983227    -0.21500
C442        C  0.38355820  0.07289434  0.71897651    -0.21500
C443        C  0.64060107  0.02500733  0.69373701    -0.22500
C444        C  0.60443374  0.04985718  0.67552546    -0.22500
C445        C  0.40848610  0.89479272  0.81337387    -0.22500
C446        C  0.37183510  0.91838216  0.79433133    -0.22500
C447        C  0.64188383  0.98652964  0.75186325    -0.17900
C448        C  0.50148608  0.91357021  0.82326406    -0.17900
C449        C  0.37457140  0.99365942  0.75472721    -0.17900
C450        C  0.51272377  0.07069208  0.68576341    -0.17900
H451        H  0.67432398  0.95952438  0.81944437     0.15000
H452        H  0.59935347  0.91808681  0.85709333     0.15000
H453        H  0.42028686  0.12745148  0.68218937     0.15000
H454        H  0.34379530  0.08449131  0.71939958     0.15000
H455        H  0.67926850  0.01671468  0.68467492     0.13300
H456        H  0.61024234  0.06476593  0.64982761     0.13300
H457        H  0.40109389  0.86515901  0.83252023     0.13300
H458        H  0.33061186  0.90985096  0.79553615     0.13300
H459        H  0.53854120  0.94946902  0.75805428     0.26600
H460        H  0.47796486  0.99734007  0.73131595     0.26600
C461        C  0.49955975  0.95075257  0.88070580    -0.16000
C462        C  0.49465998  0.90746037  0.86112455    -0.31200
H463        H  0.50920460  0.98762120  0.86847233     0.13000
H464        H  0.48239203  0.87052072  0.87217189     0.13600
C465        C  0.50614905  0.07751665  0.64824975    -0.16000
C466        C  0.50049686  0.03404175  0.62889603    -0.31200
H467        H  0.50621666  0.11580296  0.63704062     0.13000
H468        H  0.49843380  0.99659011  0.64150458     0.13600
C469        C  0.28810821  0.00639997  0.78345000    -0.12900
C470        C  0.31715313  0.99413681  0.75353321     0.09200
C471        C  0.29143109  0.98225755  0.72235103    -0.12900
C472        C  0.23738209  0.98184216  0.72122517    -0.12900
C473        C  0.20810014  0.99368796  0.75125655     0.09200
C474        C  0.23413892  0.00625528  0.78232327    -0.12900
H475        H  0.30730170  0.01588235  0.80769833     0.13200
H476        H  0.31329517  0.97298764  0.69895232     0.13200
H477        H  0.21854776  0.97244082  0.69684498     0.13200
H478        H  0.21275736  0.01542533  0.80592860     0.13200
C479        C  0.77859498  0.93875931  0.75679811    -0.12900
C480        C  0.80819999  0.98492938  0.75232477     0.09200
C481        C  0.78308363  0.03160146  0.74805309    -0.12900
C482        C  0.72919732  0.03217774  0.74833068    -0.12900
C483        C  0.69944020  0.98585350  0.75186704     0.09200
C484        C  0.72465172  0.93909878  0.75602950    -0.12900
H485        H  0.79720148  0.90230794  0.76014649     0.13200
H486        H  0.80517706  0.06778266  0.74504743     0.13200
H487        H  0.71063358  0.06880800  0.74570175     0.13200
H488        H  0.70248428  0.90291563  0.75879106     0.13200
C489        C  0.21625006  0.96255095  0.98693836    -0.12900
C490        C  0.19732937  0.99644405  0.50340315     0.09200
C491        C  0.22563324  0.03706039  0.52018828    -0.12900
C492        C  0.27946059  0.03609771  0.52203160    -0.12900
C493        C  0.30595310  0.99430999  0.50741059     0.09200
C494        C  0.27019211  0.96425903  0.98630912    -0.12900
H495        H  0.19580509  0.92631932  0.98044200     0.13200
H496        H  0.20624082  0.07000060  0.53148643     0.13200
H497        H  0.30057829  0.06829409  0.53442743     0.13200
H498        H  0.29047246  0.92941859  0.97947653     0.13200
C499        C  0.76300860  0.01589625  0.97202995    -0.12900
C500        C  0.79657619  0.00109843  0.50283304     0.09200
C501        C  0.76719299  0.97727841  0.52957577    -0.12900
C502        C  0.71333639  0.98031955  0.53072864    -0.12900
C503        C  0.68769405  0.00679923  0.50504806     0.09200
C504        C  0.70897184  0.01733804  0.97171359    -0.12900
H505        H  0.78464798  0.02762564  0.94901287     0.13200
H506        H  0.78577476  0.95616335  0.54963148     0.13200
H507        H  0.69147697  0.96106173  0.55127825     0.13200
H508        H  0.69019698  0.03015029  0.94861041     0.13200
C509        C  0.06458168  0.71253567  0.73091792    -0.12900
C510        C  0.02603945  0.68041132  0.74610672     0.09200
C511        C  0.98272415  0.70281856  0.76185315    -0.12900
C512        C  0.97829580  0.75669252  0.76282489    -0.12900
C513        C  0.01660253  0.78903531  0.74731680     0.09200
C514        C  0.05960944  0.76634437  0.73113960    -0.12900
H515        H  0.09859287  0.69594034  0.71909373     0.13200
H516        H  0.95281034  0.67849079  0.77393807     0.13200
H517        H  0.94474058  0.77299095  0.77544975     0.13200
H518        H  0.08995485  0.79029625  0.71922703     0.13200
C519        C  0.06444903  0.27066931  0.75360872    -0.12900
C520        C  0.01884689  0.29805741  0.75795207     0.09200
C521        C  0.97139078  0.27033092  0.76177137    -0.12900
C522        C  0.96929093  0.21617056  0.75956406    -0.12900
C523        C  0.01487336  0.18897168  0.75525675     0.09200
C524        C  0.06257684  0.21644161  0.75299928    -0.12900
H525        H  0.10137161  0.29135291  0.75046445     0.13200
H526        H  0.93584499  0.29079237  0.76532519     0.13200
H527        H  0.93224059  0.19544497  0.76177624     0.13200
H528        H  0.09815744  0.19591383  0.74986116     0.13200
C529        C  0.01008927  0.49267755  0.88156982    -0.16000
C530        C  0.05981877  0.49628058  0.87149365    -0.31200
H531        H  0.97978018  0.49131851  0.86227017     0.13000
H532        H  0.09103235  0.49863942  0.89006427     0.13600
C533        C  0.93116683  0.50221035  0.61739850    -0.16000
C534        C  0.96585454  0.47378470  0.63318215    -0.31200
H535        H  0.90959310  0.53050802  0.63238039     0.13000
H536        H  0.98849942  0.44635375  0.61814412     0.13600
C537        C  0.93076827  0.71785820  0.50288533    -0.12900
C538        C  0.97089419  0.68868084  0.48842106     0.09200
C539        C  0.99470328  0.71299524  0.98011328    -0.12900
C540        C  0.00261928  0.76695277  0.98125189    -0.12900
C541        C  0.97925956  0.79825032  0.49057151     0.09200
C542        C  0.93532981  0.77205351  0.50452867    -0.12900
H543        H  0.89671528  0.69856231  0.51404942     0.13200
H544        H  0.02343593  0.68941543  0.96737807     0.13200
H545        H  0.03696964  0.78382207  0.96888441     0.13200
H546        H  0.90461404  0.79344454  0.51689548     0.13200
C547        C  0.99169377  0.28494474  0.02768396    -0.12900
C548        C  0.95616661  0.30662369  0.00557548     0.09200
C549        C  0.96196401  0.27802583  0.47784709    -0.12900
C550        C  0.96352638  0.22388063  0.47768055    -0.12900
C551        C  0.99210770  0.19863702  0.50269792     0.09200
C552        C  0.99961990  0.23159147  0.02633818    -0.12900
H553        H  0.01421607  0.30960651  0.04535189     0.13200
H554        H  0.94033527  0.29674506  0.45808885     0.13200
H555        H  0.94280442  0.20186967  0.45770923     0.13200
H556        H  0.02768100  0.21607664  0.04351246     0.13200
loop_ 
_geom_bond_atom_site_label_1 
_geom_bond_atom_site_label_2 
_geom_bond_distance 
_geom_bond_site_symmetry_2 
_ccdc_geom_bond_type 
N1            C6   1.347       .  A
N1            C5   1.355       .  A
N1           H33   1.036       .  S
N2            C9   1.349       .  A
N2           C10   1.344       .  A
N3            C8   1.354   1_455  A
N3            C7   1.351       .  A
N3           H34   1.041       .  S
N4           C11   1.350       .  A
N4           C12   1.354       .  A
C5           C13   1.388       .  A
C5          C299   1.419       .  A
C6           C22   1.414       .  A
C6           C14   1.387       .  A
C7           C15   1.389   1_455  A
C7           C24   1.416       .  A
C8           C16   1.385       .  A
C8          C301   1.412       .  A
C9           C21   1.408   1_455  A
C9           C17   1.385       .  A
C10          C24   1.404       .  A
C10          C18   1.388       .  A
C11          C19   1.388       .  A
C11          C22   1.412       .  A
C12          C20   1.384       .  A
C12          C23   1.411   1_554  A
C13          C14   1.377       .  A
C13          H25   1.082       .  S
C14          H26   1.082       .  S
C15          C16   1.375       .  A
C15          H27   1.080   1_655  S
C16          H28   1.082       .  S
C17          C18   1.373       .  A
C17          H29   1.082       .  S
C18          H30   1.083       .  S
C19          C20   1.366       .  A
C19          H31   1.081       .  S
C20          H32   1.081       .  S
C21         C283   1.413       .  A
C21         C270   1.484       .  S
C22         C255   1.472       .  S
C23         C286   1.410       .  A
C23         C260   1.494       .  S
C24         C251   1.469       .  S
N35          C40   1.356       .  A
N35          C39   1.345       .  A
N35          H67   1.041       .  S
N36          C43   1.350       .  A
N36          C44   1.353       .  A
N37          C42   1.350       .  A
N37          C41   1.352       .  A
N37          H68   1.042       .  S
N38          C45   1.347       .  A
N38          C46   1.343   1_455  A
C39          C47   1.388       .  A
C39          C55   1.412       .  A
C40          C56   1.415       .  A
C40          C48   1.385       .  A
C41          C49   1.385       .  A
C41          C58   1.409       .  A
C42          C57   1.412   1_455  A
C42          C50   1.387       .  A
C43          C55   1.412       .  A
C43          C51   1.389       .  A
C44          C58   1.409       .  A
C44          C52   1.384       .  A
C45          C53   1.387   1_455  A
C45          C56   1.407       .  A
C46          C54   1.385       .  A
C46          C57   1.397       .  A
C47          C48   1.380       .  A
C47          H59   1.082       .  S
C48          H60   1.082       .  S
C49          C50   1.378       .  A
C49          H61   1.082       .  S
C50          H62   1.081       .  S
C51          C52   1.371       .  A
C51          H63   1.081       .  S
C52          H64   1.082       .  S
C53          C54   1.370       .  A
C53          H65   1.082       .  S
C54          H66   1.082       .  S
C55         C252   1.478       .  S
C56         C242   1.490       .  S
C57         C256   1.465       .  S
C58         C232   1.485       .  S
O69          C85   1.285   1_655  A
O69         Zn75   2.146       .  S
C70         C222   1.491       .  S
C70          O83   1.282       .  A
C70         O364   1.280   1_564  A
O71          C84   1.278   1_455  A
O71         Cd78   2.075       .  S
O72          C90   1.288   1_665  A
O72         Cd81   2.189       .  S
O73         C365   1.279   1_455  A
O73         Cd77   2.079       .  S
O74          C85   1.283   1_565  A
O74         Cd77   2.169       .  S
Zn75         O86   2.031       .  S
Zn75         O88   2.029       .  S
Zn75        O358   1.988   1_545  S
O76          C87   1.280       .  A
O76         Cd81   2.087       .  S
Cd77         O79   2.085       .  S
Cd77        O358   2.030   1_455  S
Cd78         O82   2.065       .  S
Cd78         O91   2.150       .  S
Cd78         O80   2.027   1_455  S
O79         C367   1.280       .  A
O80        Zn353   1.982   1_554  S
O80         Cd81   2.031   1_545  S
O80        Cd355   2.023   1_644  S
Cd81         O83   2.099       .  S
O82          C89   1.278   1_554  A
C84         C273   1.485       .  S
C84         O366   1.279   1_554  A
C85         C113   1.535       .  S
O86         C348   1.279   1_545  A
C87         C263   1.484   1_554  S
C87         O351   1.279   1_654  A
O88         C362   1.279       .  A
C89         C212   1.474       .  S
C89         O357   1.279   1_545  A
C90         C108   1.531       .  S
C90          O91   1.281       .  A
O92         C108   1.282   1_655  A
O92         Zn98   2.128       .  S
C93         C202   1.479       .  S
C93         O109   1.278       .  A
C93         O106   1.282   1_545  A
O94         C107   1.275       .  A
O94        Cd101   2.066       .  S
O95         C113   1.287   1_665  A
O95        Cd104   2.186       .  S
O96         C110   1.277       .  A
O96        Cd100   2.065       .  S
O97         C108   1.284   1_565  A
O97        Cd100   2.171       .  S
Zn98        O109   2.020       .  S
Zn98        O111   2.055       .  S
Zn98        O103   1.982   1_655  S
O99         C110   1.283   1_655  A
O99        Cd104   2.109       .  S
Cd100       O102   2.097       .  S
Cd100       O103   2.029   1_565  S
Cd101       O105   2.077       .  S
Cd101       O114   2.159       .  S
Cd101       O103   2.030       .  S
O102        C112   1.282   1_565  A
O103       Cd104   2.034   1_445  S
Cd104       O106   2.090       .  S
O105        C112   1.279       .  A
C107        C245   1.474       .  S
C107        O111   1.281   1_455  A
C110        C235   1.485       .  S
C112        C195   1.489       .  S
C113        O114   1.282       .  A
N115        C120   1.348       .  A
N115        C119   1.355       .  A
N115        H147   1.041   1_545  S
N116        C123   1.349       .  A
N116        C124   1.346       .  A
N117        C122   1.352       .  A
N117        C121   1.350       .  A
N117        H148   1.042       .  S
N118        C125   1.350       .  A
N118        C126   1.352       .  A
C119        C127   1.384       .  A
C119        C135   1.414       .  A
C120        C136   1.410       .  A
C120        C128   1.387       .  A
C121        C129   1.389   1_565  A
C121        C138   1.409       .  A
C122        C130   1.386   1_565  A
C122        C415   1.410       .  A
C123        C131   1.384       .  A
C123        C413   1.407   1_565  A
C124        C138   1.405       .  A
C124        C132   1.386       .  A
C125        C133   1.388       .  A
C125        C136   1.409       .  A
C126        C134   1.385       .  A
C126        C137   1.409   1_554  A
C127        C128   1.377       .  A
C127        H139   1.082       .  S
C128        H140   1.078       .  S
C129        C130   1.375       .  A
C129        H141   1.083       .  S
C130        H142   1.082       .  S
C131        C132   1.373       .  A
C131        H143   1.082       .  S
C132        H144   1.079       .  S
C133        C134   1.370       .  A
C133        H145   1.083       .  S
C134        H146   1.082       .  S
C135        C401   1.409   1_544  A
C135        C225   1.494       .  S
C136        C188   1.473       .  S
C137        C400   1.408   1_545  A
C137        C215   1.482       .  S
C138        C183   1.469       .  S
N149        C154   1.351       .  A
N149        C153   1.354   1_565  A
N149        H181   1.040       .  S
N150        C157   1.354       .  A
N150        C158   1.350       .  A
N151        C156   1.355       .  A
N151        C155   1.348       .  A
N151        H182   1.036       .  S
N152        C159   1.346       .  A
N152        C160   1.351       .  A
C153        C161   1.384       .  A
C153        C169   1.409       .  A
C154        C170   1.414       .  A
C154        C162   1.388       .  A
C155        C163   1.387       .  A
C155        C172   1.411       .  A
C156        C171   1.416       .  A
C156        C164   1.387       .  A
C157        C169   1.409       .  A
C157        C165   1.382       .  A
C158        C172   1.414       .  A
C158        C166   1.387       .  A
C159        C167   1.386       .  A
C159        C170   1.407       .  A
C160        C168   1.386       .  A
C160        C171   1.412   1_565  A
C161        C162   1.370   1_545  A
C161        H173   1.082       .  S
C162        H174   1.078       .  S
C163        C164   1.377       .  A
C163        H175   1.083       .  S
C164        H176   1.082       .  S
C165        C166   1.370       .  A
C165        H177   1.082       .  S
C166        H178   1.077       .  S
C167        C168   1.374       .  A
C167        H179   1.082       .  S
C168        H180   1.082       .  S
C169        C205   1.491       .  S
C170        C184   1.473       .  S
C171        C192   1.488       .  S
C172        C187   1.474       .  S
C183        C184   1.335       .  D
C183        H185   1.088   1_565  S
C184        H186   1.086       .  S
C187        C188   1.337       .  D
C187        H189   1.084       .  S
C188        H190   1.089       .  S
C191        C192   1.402       .  A
C191        C196   1.400       .  A
C191        H197   1.083       .  S
C192        C193   1.402   1_545  A
C193        C194   1.400       .  A
C193        H198   1.083       .  S
C194        C195   1.407   1_565  A
C194        H199   1.083       .  S
C195        C196   1.410       .  A
C196        H200   1.083       .  S
C201        C202   1.404   1_565  A
C201        C206   1.397       .  A
C201        H207   1.083       .  S
C202        C203   1.407       .  A
C203        C204   1.399       .  A
C203        H208   1.083       .  S
C204        C205   1.404       .  A
C204        H209   1.083       .  S
C205        C206   1.405   1_545  A
C206        H210   1.083       .  S
C211        C216   1.398       .  A
C211        C490   1.406       .  A
C211        H217   1.083       .  S
C212        C213   1.406   1_556  A
C212        C489   1.405   1_545  A
C213        C214   1.396       .  A
C213        H218   1.083       .  S
C214        C215   1.403   1_554  A
C214        H219   1.083       .  S
C215        C494   1.402   1_545  A
C216        C493   1.403       .  A
C216        H220   1.083       .  S
C221        C226   1.399       .  A
C221        C500   1.408       .  A
C221        H227   1.083       .  S
C222        C223   1.408       .  A
C222        C499   1.409   1_564  A
C223        C224   1.402       .  A
C223        H228   1.083       .  S
C224        C225   1.404   1_565  A
C224        H229   1.083       .  S
C225        C504   1.405   1_554  A
C226        C503   1.404       .  A
C226        H230   1.083       .  S
C231        C232   1.399       .  A
C231        C236   1.398       .  A
C231        H237   1.083       .  S
C232        C233   1.405   1_455  A
C233        C234   1.403       .  A
C233        H238   1.083       .  S
C234        C235   1.406   1_655  A
C234        H239   1.083       .  S
C235        C236   1.409       .  A
C236        H240   1.083       .  S
C241        C242   1.408       .  A
C241        C246   1.397       .  A
C241        H247   1.083       .  S
C242        C243   1.403       .  A
C243        C244   1.401       .  A
C243        H248   1.083       .  S
C244        C245   1.406       .  A
C244        H249   1.083       .  S
C245        C246   1.401       .  A
C246        H250   1.083       .  S
C251        C252   1.340       .  D
C251        H253   1.088       .  S
C252        H254   1.086       .  S
C255        C256   1.336       .  D
C255        H257   1.087       .  S
C256        H258   1.088       .  S
C259        C260   1.405   1_554  A
C259        C264   1.399       .  A
C259        H265   1.083       .  S
C260        C539   1.405       .  A
C261        C262   1.397       .  A
C261        C538   1.406   1_455  A
C261        H266   1.083       .  S
C262        C541   1.404   1_455  A
C262        H267   1.083       .  S
C263        C264   1.407   1_556  A
C263        C540   1.406   1_655  A
C264        H268   1.083       .  S
C269        C270   1.401   1_455  A
C269        C274   1.399       .  A
C269        H275   1.083       .  S
C270        C549   1.402       .  A
C271        C272   1.398       .  A
C271        C548   1.403   1_556  A
C271        H276   1.083       .  S
C272        C273   1.408   1_556  A
C272        H277   1.083       .  S
C273        C552   1.408       .  A
C274        C551   1.408   1_455  A
C274        H278   1.083       .  S
N279        C284   1.346       .  A
N279        C283   1.354       .  A
N279        H311   1.039       .  S
N280        C287   1.349       .  A
N280        C288   1.346       .  A
N281        C286   1.354       .  A
N281        C285   1.350       .  A
N281        H312   1.042       .  S
N282        C289   1.352       .  A
N282        C290   1.354       .  A
C283        C291   1.387       .  A
C284        C300   1.410       .  A
C284        C292   1.386       .  A
C285        C293   1.388       .  A
C285        C302   1.410       .  A
C286        C294   1.384       .  A
C287        C299   1.413   1_556  A
C287        C295   1.387   1_655  A
C288        C302   1.406       .  A
C288        C296   1.386   1_655  A
C289        C297   1.387       .  A
C289        C300   1.411       .  A
C290        C298   1.385       .  A
C290        C301   1.412       .  A
C291        C292   1.378       .  A
C291        H303   1.082       .  S
C292        H304   1.082       .  S
C293        C294   1.374       .  A
C293        H305   1.082       .  S
C294        H306   1.082       .  S
C295        C296   1.371       .  A
C295        H307   1.082       .  S
C296        H308   1.081       .  S
C297        C298   1.368       .  A
C297        H309   1.081       .  S
C298        H310   1.082       .  S
C299        C548   1.486       .  S
C300        C533   1.481       .  S
C301        C538   1.495       .  S
C302        C529   1.465   1_655  S
N313        C318   1.355       .  A
N313        C317   1.348       .  A
N313        H345   1.032       .  S
N314        C321   1.350       .  A
N314        C322   1.352       .  A
N315        C320   1.353   1_455  A
N315        C319   1.356       .  A
N315        H346   1.039   1_455  S
N316        C323   1.350   1_455  A
N316        C324   1.346   1_455  A
C317        C325   1.384       .  A
C317        C333   1.407       .  A
C318        C334   1.420       .  A
C318        C326   1.389       .  A
C319        C327   1.384       .  A
C319        C336   1.411       .  A
C320        C335   1.417       .  A
C320        C328   1.387   1_655  A
C321        C333   1.411       .  A
C321        C329   1.387       .  A
C322        C336   1.409       .  A
C322        C330   1.386       .  A
C323        C331   1.389       .  A
C323        C334   1.416   1_655  A
C324        C332   1.386       .  A
C324        C335   1.406       .  A
C325        C326   1.375       .  A
C325        H337   1.082       .  S
C326        H338   1.081       .  S
C327        C328   1.373       .  A
C327        H339   1.081       .  S
C328        H340   1.080       .  S
C329        C330   1.369       .  A
C329        H341   1.083       .  S
C330        H342   1.082       .  S
C331        C332   1.369       .  A
C331        H343   1.081       .  S
C332        H344   1.083       .  S
C333        C530   1.470       .  S
C334        C520   1.488       .  S
C335        C534   1.476       .  S
C336        C510   1.485       .  S
O347        C363   1.286   1_545  A
O347       Zn353   2.151       .  S
C348        C500   1.486   1_565  S
C348        O361   1.280       .  A
O349        C362   1.280   1_455  A
O349       Cd356   2.083       .  S
O350        C368   1.286   1_655  A
O350       Cd359   2.183       .  S
O351       Cd355   2.080       .  S
O352        C363   1.281   1_455  A
O352       Cd355   2.154       .  S
Zn353       O364   2.037       .  S
Zn353       O366   2.034       .  S
O354        C365   1.279       .  A
O354       Cd359   2.075       .  S
Cd355       O357   2.071       .  S
Cd356       O360   2.076       .  S
Cd356       O369   2.175       .  S
Cd356       O358   2.030   1_445  S
O358       Cd359   2.034       .  S
Cd359       O361   2.084       .  S
O360        C367   1.279   1_545  A
C362        C551   1.485       .  S
C363        C391   1.533       .  S
C365        C541   1.479       .  S
C367        C490   1.482       .  S
C368        C386   1.540       .  S
C368        O369   1.284   1_565  A
O370        C386   1.285   1_645  A
O370       Zn376   2.148       .  S
C371        C480   1.472       .  S
C371        O387   1.278   1_565  A
C371        O384   1.278       .  A
O372        C385   1.275       .  A
O372       Cd379   2.062       .  S
O373        C391   1.284       .  A
O373       Cd382   2.174       .  S
O374        C388   1.279       .  A
O374       Cd378   2.078       .  S
O375        C386   1.285       .  A
O375       Cd378   2.179       .  S
Zn376       O387   2.024       .  S
Zn376       O389   2.033       .  S
Zn376       O381   1.978   1_645  S
O377        C388   1.281   1_655  A
O377       Cd382   2.085       .  S
Cd378       O380   2.090       .  S
Cd378       O381   2.034       .  S
Cd379       O383   2.074       .  S
Cd379       O392   2.169       .  S
Cd379       O381   2.029   1_545  S
O380        C390   1.281       .  A
O381       Cd382   2.037   1_455  S
Cd382       O384   2.071       .  S
O383        C390   1.279   1_545  A
C385        C523   1.466       .  S
C385        O389   1.279   1_455  A
C388        C513   1.481       .  S
C390        C473   1.484       .  S
C391        O392   1.283   1_665  A
N393        C398   1.347       .  A
N393        C397   1.353       .  A
N393        H425   1.043   1_545  S
N394        C401   1.351       .  A
N394        C402   1.346       .  A
N395        C400   1.351       .  A
N395        C399   1.349       .  A
N395        H426   1.041       .  S
N396        C403   1.346       .  A
N396        C404   1.350   1_545  A
C397        C405   1.383       .  A
C397        C413   1.409       .  A
C398        C414   1.408       .  A
C398        C406   1.387       .  A
C399        C407   1.389       .  A
C399        C416   1.408       .  A
C400        C408   1.386       .  A
C401        C409   1.384       .  A
C402        C416   1.403       .  A
C402        C410   1.384       .  A
C403        C411   1.388       .  A
C403        C414   1.406       .  A
C404        C412   1.385       .  A
C404        C415   1.408       .  A
C405        C406   1.378       .  A
C405        H417   1.082       .  S
C406        H418   1.079       .  S
C407        C408   1.376       .  A
C407        H419   1.083       .  S
C408        H420   1.083   1_565  S
C409        C410   1.374       .  A
C409        H421   1.082       .  S
C410        H422   1.079       .  S
C411        C412   1.374   1_545  A
C411        H423   1.083       .  S
C412        H424   1.082       .  S
C413        C503   1.487       .  S
C414        C466   1.465       .  S
C415        C493   1.485       .  S
C416        C461   1.464       .  S
N427        C432   1.351       .  A
N427        C431   1.355       .  A
N427        H459   1.041       .  S
N428        C435   1.354       .  A
N428        C436   1.350       .  A
N429        C434   1.352       .  A
N429        C433   1.346       .  A
N429        H460   1.038   1_545  S
N430        C437   1.346       .  A
N430        C438   1.350       .  A
C431        C439   1.382       .  A
C431        C447   1.407       .  A
C432        C448   1.417       .  A
C432        C440   1.388       .  A
C433        C441   1.386       .  A
C433        C450   1.405       .  A
C434        C449   1.416   1_545  A
C434        C442   1.388       .  A
C435        C447   1.406   1_545  A
C435        C443   1.382       .  A
C436        C450   1.413       .  A
C436        C444   1.387       .  A
C437        C445   1.386       .  A
C437        C448   1.405       .  A
C438        C446   1.386       .  A
C438        C449   1.415       .  A
C439        C440   1.367       .  A
C439        H451   1.082       .  S
C440        H452   1.075       .  S
C441        C442   1.378       .  A
C441        H453   1.083       .  S
C442        H454   1.082       .  S
C443        C444   1.365       .  A
C443        H455   1.082       .  S
C444        H456   1.075       .  S
C445        C446   1.375       .  A
C445        H457   1.082       .  S
C446        H458   1.082       .  S
C447        C483   1.491       .  S
C448        C462   1.476       .  S
C449        C470   1.488       .  S
C450        C465   1.471       .  S
C461        C462   1.337       .  D
C461        H463   1.089       .  S
C462        H464   1.086       .  S
C465        C466   1.338       .  D
C465        H467   1.086       .  S
C466        H468   1.089   1_545  S
C469        C470   1.402   1_545  A
C469        C474   1.398       .  A
C469        H475   1.083       .  S
C470        C471   1.404       .  A
C471        C472   1.400       .  A
C471        H476   1.083       .  S
C472        C473   1.407       .  A
C472        H477   1.083       .  S
C473        C474   1.408   1_565  A
C474        H478   1.083       .  S
C479        C480   1.404       .  A
C479        C484   1.397       .  A
C479        H485   1.083       .  S
C480        C481   1.403   1_565  A
C481        C482   1.395       .  A
C481        H486   1.083       .  S
C482        C483   1.405   1_545  A
C482        H487   1.083       .  S
C483        C484   1.406       .  A
C484        H488   1.083       .  S
C489        C494   1.395       .  A
C489        H495   1.083       .  S
C490        C491   1.407   1_565  A
C491        C492   1.397       .  A
C491        H496   1.083       .  S
C492        C493   1.402   1_545  A
C492        H497   1.083       .  S
C494        H498   1.083       .  S
C499        C504   1.401       .  A
C499        H505   1.083       .  S
C500        C501   1.408   1_545  A
C501        C502   1.399       .  A
C501        H506   1.083       .  S
C502        C503   1.402   1_565  A
C502        H507   1.083       .  S
C504        H508   1.083       .  S
C509        C510   1.401       .  A
C509        C514   1.398       .  A
C509        H515   1.083       .  S
C510        C511   1.404   1_455  A
C511        C512   1.398       .  A
C511        H516   1.083       .  S
C512        C513   1.405   1_655  A
C512        H517   1.083       .  S
C513        C514   1.408       .  A
C514        H518   1.083       .  S
C519        C520   1.404       .  A
C519        C524   1.397       .  A
C519        H525   1.083       .  S
C520        C521   1.405   1_455  A
C521        C522   1.397       .  A
C521        H526   1.083       .  S
C522        C523   1.401   1_655  A
C522        H527   1.083       .  S
C523        C524   1.403       .  A
C524        H528   1.083       .  S
C529        C530   1.339       .  D
C529        H531   1.088   1_455  S
C530        H532   1.086       .  S
C533        C534   1.341       .  D
C533        H535   1.086       .  S
C534        H536   1.087       .  S
C537        C538   1.406       .  A
C537        C542   1.398       .  A
C537        H543   1.083       .  S
C539        C540   1.399   1_655  A
C539        H544   1.083   1_655  S
C540        H545   1.083       .  S
C541        C542   1.406       .  A
C542        H546   1.083       .  S
C547        C548   1.402       .  A
C547        C552   1.399       .  A
C547        H553   1.083   1_655  S
C549        C550   1.398       .  A
C549        H554   1.083       .  S
C550        C551   1.408       .  A
C550        H555   1.083       .  S
C552        H556   1.083   1_655  S
