geometry optimzed in LAMMPS
_audit_creation_date              2020-11-30 
_audit_creation_method            'lammps2cif' 
_symmetry_space_group_name_H-M    'P1' 
_symmetry_Int_Tables_number       1 
_symmetry_cell_setting            triclinic 
loop_ 
_symmetry_equiv_pos_as_xyz 
  x,y,z 
_cell_length_a                    26.72051344 
_cell_length_b                    25.932991388473408 
_cell_length_c                    25.818888214044826 
_cell_angle_alpha                 90.15684156449029 
_cell_angle_beta                  90.598799836753 
_cell_angle_gamma                 88.3124046753559 
loop_ 
_atom_site_label 
_atom_site_type_symbol 
_atom_site_fract_x 
_atom_site_fract_y 
_atom_site_fract_z 
_atom_site_charge 
Zn1        Zn  0.95206472  0.54908132  0.03731002     1.49700
Zn2        Zn  0.95233415  0.45920050  0.95502463     1.49400
Zn3        Zn  0.03755371  0.54723130  0.95331533     1.49100
Zn4        Zn  0.04114238  0.46009837  0.03700898     1.49500
O5          O  0.99565134  0.50390143  0.99558521    -1.82900
O6          O  0.87834086  0.53797680  0.02437693    -0.73500
O7          O  0.96594911  0.47054842  0.88035834    -0.73400
O8          O  0.02499306  0.62320700  0.96671817    -0.72900
O9          O  0.87840902  0.47432301  0.96709734    -0.73600
O10         O  0.96464236  0.62455326  0.02519021    -0.73200
O11         O  0.02202673  0.53276860  0.87985005    -0.73700
O12         O  0.11428109  0.47106022  0.02286058    -0.73100
O13         O  0.96520239  0.38375927  0.97113617    -0.73900
O14         O  0.11175620  0.53295122  0.96378776    -0.73300
O15         O  0.02747920  0.38433185  0.02862759    -0.73700
O16         O  0.03045297  0.47746827  0.11045479    -0.73600
O17         O  0.96638713  0.53435564  0.11163402    -0.73400
C18         C  0.85478366  0.50662436  0.99576195     0.78400
C19         C  0.99388273  0.50133361  0.85656581     0.78800
C20         C  0.99493118  0.64790164  0.99632830     0.77800
C21         C  0.13639496  0.50176276  0.99298310     0.78200
C22         C  0.99593136  0.36002875  0.00134511     0.79300
C23         C  0.99919604  0.50603998  0.13478248     0.78400
Zn24       Zn  0.04696784  0.45825877  0.53878646     1.49700
Zn25       Zn  0.96214857  0.45468481  0.45237451     1.49400
Zn26       Zn  0.95327188  0.54203491  0.53625143     1.49100
Zn27       Zn  0.04238147  0.54782177  0.45756297     1.49500
O28         O  0.00122054  0.50057767  0.49600798    -1.82900
O29         O  0.03843801  0.38171930  0.52747464    -0.73500
O30         O  0.88668673  0.46282945  0.46289878    -0.73400
O31         O  0.96465569  0.52590815  0.60993835    -0.72900
O32         O  0.98114992  0.37971128  0.46477329    -0.73600
O33         O  0.03254033  0.47408359  0.61190276    -0.73200
O34         O  0.88151122  0.52624316  0.52043859    -0.73700
O35         O  0.02607920  0.62238444  0.47568815    -0.73100
O36         O  0.97687632  0.47120344  0.37931329    -0.73900
O37         O  0.96245973  0.61873883  0.52987030    -0.73300
O38         O  0.03012316  0.53593438  0.38257858    -0.73700
O39         O  0.11683600  0.53573867  0.47001589    -0.73600
O40         O  0.11976057  0.47284409  0.52801671    -0.73400
C41         C  0.01107927  0.35657295  0.49628043     0.78400
C42         C  0.86068186  0.49318123  0.49154095     0.78800
C43         C  0.99821269  0.50012348  0.63460367     0.77800
C44         C  0.99402787  0.64461394  0.50510487     0.78200
C45         C  0.00402245  0.50399533  0.35732027     0.79300
C46         C  0.14164321  0.50463085  0.49921092     0.78400
Zn47       Zn  0.53651356  0.54366241  0.04094670     1.49700
Zn48       Zn  0.45220401  0.45502765  0.03825930     1.49400
Zn49       Zn  0.45071928  0.54371791  0.95542163     1.49100
Zn50       Zn  0.54041057  0.45445820  0.95745666     1.49500
O51         O  0.49501611  0.49929719  0.99799815    -1.82900
O52         O  0.52233470  0.52909778  0.11520597    -0.73500
O53         O  0.37814857  0.46870231  0.02477800    -0.73400
O54         O  0.46053988  0.61970523  0.96903572    -0.72900
O55         O  0.46473776  0.46835124  0.11260193    -0.73600
O56         O  0.52124386  0.61921978  0.02843527    -0.73200
O57         O  0.37721389  0.53034558  0.96539735    -0.73700
O58         O  0.52580424  0.46724696  0.88286082    -0.73100
O59         O  0.46748243  0.37940045  0.02551546    -0.73900
O60         O  0.46635408  0.52959662  0.88169744    -0.73300
O61         O  0.53106843  0.37845605  0.97093237    -0.73700
O62         O  0.61361391  0.46939126  0.96953026    -0.73600
O63         O  0.61084939  0.53219949  0.02773184    -0.73400
C64         C  0.49310453  0.49839319  0.13738833     0.78400
C65         C  0.35428076  0.49969067  0.99464368     0.78800
C66         C  0.49033994  0.64344883  0.99887221     0.77800
C67         C  0.49628289  0.49836736  0.85868139     0.78200
C68         C  0.49976744  0.35481487  0.99832081     0.79300
C69         C  0.63580043  0.50167342  0.99830920     0.78400
Zn70       Zn  0.45752320  0.54247916  0.53739498     1.49700
Zn71       Zn  0.54401090  0.53705045  0.45476104     1.49400
Zn72       Zn  0.54600613  0.45212716  0.54115458     1.49100
Zn73       Zn  0.45773374  0.45036493  0.45803353     1.49500
O74         O  0.50132149  0.49543463  0.49786552    -1.82900
O75         O  0.47034519  0.61746113  0.52281885    -0.73500
O76         O  0.61803286  0.52074292  0.46525360    -0.73400
O77         O  0.53118260  0.46829886  0.61445661    -0.72900
O78         O  0.53340969  0.61325064  0.46749429    -0.73600
O79         O  0.47102098  0.52992649  0.61207439    -0.73200
O80         O  0.61974207  0.46393743  0.52921858    -0.73700
O81         O  0.47355188  0.37519962  0.47204656    -0.73100
O82         O  0.52636473  0.52368540  0.38124816    -0.73900
O83         O  0.53475727  0.37599815  0.53063945    -0.73300
O84         O  0.46875170  0.46297073  0.38312716    -0.73700
O85         O  0.38363764  0.46381110  0.47180499    -0.73600
O86         O  0.38372344  0.53094643  0.52491603    -0.73400
C87         C  0.50237808  0.63929738  0.49480511     0.78400
C88         C  0.64239935  0.49167890  0.49686718     0.78800
C89         C  0.50070442  0.49943827  0.63680029     0.77800
C90         C  0.50463327  0.35143848  0.50185790     0.78200
C91         C  0.49647167  0.49344388  0.35872118     0.79300
C92         C  0.36008302  0.49778802  0.49858080     0.78400
N93         N  0.99771151  0.94699091  0.06372382    -0.35400
N94         N  0.99109117  0.05842775  0.06757596    -0.55900
N95         N  0.99642991  0.06121024  0.95194064    -0.35400
N96         N  0.99613968  0.95015738  0.94800490    -0.55900
C97         C  0.99199761  0.95347571  0.11568243     0.28200
C98         C  0.99237555  0.89630019  0.05282753     0.28200
C99         C  0.98784605  0.11180658  0.96249403     0.28200
C100        C  0.99153810  0.05481663  0.89983329     0.28200
C101        C  0.99534065  0.04981465  0.11934235     0.36800
C102        C  0.99375190  0.10998244  0.06040444     0.36800
C103        C  0.99978045  0.89849850  0.95506159     0.36800
C104        C  0.00038707  0.95870345  0.89638998     0.36800
C105        C  0.98388730  0.90600197  0.13808454    -0.20700
C106        C  0.98398459  0.87011056  0.09863376    -0.20700
C107        C  0.97820123  0.13797676  0.91641998    -0.20700
C108        C  0.98071389  0.10218900  0.87707912    -0.20700
C109        C  0.99942867  0.09636572  0.14523790    -0.21700
C110        C  0.99843000  0.13433726  0.10807078    -0.21700
C111        C  0.00547279  0.87411588  0.90743907    -0.21700
C112        C  0.00586594  0.91211325  0.87046159    -0.21700
C113        C  0.99487703  0.00069164  0.14384345    -0.17100
C114        C  0.99637189  0.87226426  0.00322295    -0.17100
C115        C  0.99748429  0.00774570  0.87187952    -0.17100
C116        C  0.99102720  0.13602774  0.01189808    -0.17100
H117        H  0.97823710  0.89797529  0.17868875     0.15800
H118        H  0.97858643  0.82919385  0.10331875     0.15800
H119        H  0.97039861  0.17886233  0.91145501     0.15800
H120        H  0.97504960  0.11028206  0.83631047     0.15800
H121        H  0.00291183  0.10238629  0.18660472     0.14100
H122        H  0.00095887  0.17529860  0.11538283     0.14100
H123        H  0.00877256  0.83307701  0.89995938     0.14100
H124        H  0.00937496  0.90603834  0.82914987     0.14100
H125        H  0.00887312  0.97426376  0.03773739     0.27400
H126        H  0.00974635  0.03422919  0.97825949     0.27400
N127        N  0.00300752  0.94769482  0.56783437    -0.35400
N128        N  0.01396025  0.05834656  0.56406269    -0.55900
N129        N  0.01628925  0.05288411  0.44855793    -0.35400
N130        N  0.00600505  0.94203251  0.45234981    -0.55900
C131        C  0.00797188  0.95739507  0.61942980     0.28200
C132        C  0.00561228  0.89586450  0.56103266     0.28200
C133        C  0.01642482  0.10467805  0.45531794     0.28200
C134        C  0.01222809  0.04338078  0.39684961     0.28200
C135        C  0.01027877  0.05380724  0.61621157     0.36800
C136        C  0.01575058  0.10931362  0.55351433     0.36800
C137        C  0.00015706  0.89152361  0.46298942     0.36800
C138        C  0.00388431  0.94726915  0.40004586     0.36800
C139        C  0.01261594  0.91097278  0.64573608    -0.20700
C140        C  0.01117895  0.87234446  0.60912186    -0.20700
C141        C  0.01413665  0.12835130  0.40712962    -0.20700
C142        C  0.01157295  0.08990663  0.37048726    -0.20700
C143        C  0.01042553  0.10218943  0.63899064    -0.21700
C144        C  0.01394931  0.13722340  0.59947821    -0.21700
C145        C  0.99442731  0.86444813  0.41691413    -0.21700
C146        C  0.99666437  0.89963748  0.37728017    -0.21700
C147        C  0.00771322  0.00671380  0.64393715    -0.17100
C148        C  0.00150466  0.86861749  0.51316750    -0.17100
C149        C  0.00746299  0.99439273  0.37229617    -0.17100
C150        C  0.01709248  0.13191107  0.50335736    -0.17100
H151        H  0.01676668  0.90538443  0.68710672     0.15800
H152        H  0.01376947  0.83142856  0.61723122     0.15800
H153        H  0.01347106  0.16929290  0.39903152     0.15800
H154        H  0.00852633  0.09579776  0.32907594     0.15800
H155        H  0.00813026  0.11137305  0.67983064     0.14100
H156        H  0.01447319  0.17869275  0.60414939     0.14100
H157        H  0.98922988  0.82346902  0.41218003     0.14100
H158        H  0.99317839  0.89109481  0.33636832     0.14100
H159        H  0.99389327  0.97426624  0.53923176     0.27400
H160        H  0.02026591  0.02604236  0.47780660     0.27400
N161        N  0.49570146  0.94325891  0.93905565    -0.35400
N162        N  0.49470706  0.05422216  0.93835767    -0.55900
N163        N  0.49832715  0.05417915  0.05427028    -0.35400
N164        N  0.49238792  0.94353066  0.05470199    -0.55900
C165        C  0.48891598  0.95158052  0.88745024     0.28200
C166        C  0.48564938  0.89333446  0.94850084     0.28200
C167        C  0.49197251  0.10527965  0.04487453     0.28200
C168        C  0.49271029  0.04665228  0.10599668     0.28200
C169        C  0.50192739  0.04631318  0.88691091     0.36800
C170        C  0.50184625  0.10489263  0.94750881     0.36800
C171        C  0.49680112  0.89220950  0.04572000     0.36800
C172        C  0.49928569  0.95046479  0.10638840     0.36800
C173        C  0.47501542  0.90607550  0.86381913    -0.20700
C174        C  0.47292736  0.86943909  0.90219829    -0.20700
C175        C  0.48297555  0.13071996  0.09143876    -0.20700
C176        C  0.48356206  0.09386220  0.12983724    -0.20700
C177        C  0.51302243  0.09234626  0.86321290    -0.21700
C178        C  0.51274136  0.12939309  0.90140053    -0.21700
C179        C  0.50570299  0.86642059  0.09211130    -0.21700
C180        C  0.50722111  0.90322597  0.13040335    -0.21700
C181        C  0.49686655  0.99847371  0.86064825    -0.17100
C182        C  0.49069839  0.86755250  0.99692700    -0.17100
C183        C  0.49712754  0.99866006  0.13262188    -0.17100
C184        C  0.49705311  0.13029394  0.99620990    -0.17100
H185        H  0.46738981  0.89979557  0.82306762     0.15800
H186        H  0.46358404  0.82948028  0.89648861     0.15800
H187        H  0.47715865  0.17178675  0.09734874     0.15800
H188        H  0.47802671  0.10109161  0.17071718     0.15800
H189        H  0.52040231  0.09865824  0.82261761     0.14100
H190        H  0.51996610  0.16983457  0.89580441     0.14100
H191        H  0.51047954  0.82524146  0.09788575     0.14100
H192        H  0.51347721  0.89598399  0.17126040     0.14100
H193        H  0.51167595  0.96816773  0.96547932     0.27400
H194        H  0.51062051  0.02713292  0.02740165     0.24600
N195        N  0.50917824  0.05132772  0.44022684    -0.35400
N196        N  0.50768819  0.94021229  0.43792724    -0.55900
N197        N  0.51195641  0.93828058  0.55336262    -0.35400
N198        N  0.50761374  0.04942235  0.55540902    -0.55900
C199        C  0.50160037  0.04412790  0.38857356     0.28200
C200        C  0.50076817  0.10203641  0.45059715     0.28200
C201        C  0.50223364  0.88842167  0.54259694     0.28200
C202        C  0.50293849  0.94619236  0.60458201     0.28200
C203        C  0.51205784  0.94814142  0.38625357     0.36800
C204        C  0.51297409  0.88876898  0.44569044     0.36800
C205        C  0.51250963  0.10059594  0.54769921     0.36800
C206        C  0.51418505  0.04112316  0.60693522     0.36800
C207        C  0.48916685  0.09115408  0.36578482    -0.20700
C208        C  0.48868935  0.12757932  0.40473601    -0.20700
C209        C  0.48790277  0.86413098  0.58771945    -0.20700
C210        C  0.48825996  0.90050211  0.62664999    -0.20700
C211        C  0.51960849  0.90139222  0.36105579    -0.21700
C212        C  0.52026953  0.86387736  0.39858740    -0.21700
C213        C  0.52166253  0.12488529  0.59469181    -0.21700
C214        C  0.52302768  0.08727942  0.63201123    -0.21700
C215        C  0.50671369  0.99664695  0.36104331    -0.17100
C216        C  0.50623136  0.12663700  0.49961380    -0.17100
C217        C  0.50849080  0.99318999  0.63232155    -0.17100
C218        C  0.50780657  0.86324730  0.49389468    -0.17100
H219        H  0.48131395  0.09856057  0.32522828     0.15800
H220        H  0.48059325  0.16839616  0.39966110     0.15800
H221        H  0.47802232  0.82422438  0.59219710     0.15800
H222        H  0.47863686  0.89401120  0.66667226     0.15800
H223        H  0.52367482  0.89490761  0.31986099     0.14100
H224        H  0.52481257  0.82280868  0.39180501     0.14100
H225        H  0.52641760  0.16563475  0.60159546     0.14100
H226        H  0.52896428  0.09340669  0.67307346     0.14100
H227        H  0.52381247  0.02448895  0.46630231     0.27400
H228        H  0.52840247  0.96366550  0.52814948     0.27400
C229        C  0.49965316  0.99710643  0.80187423    -0.04100
C230        C  0.54203351  0.97468011  0.77704686    -0.01200
C231        C  0.54435157  0.97196616  0.72217076     0.03800
C232        C  0.50493513  0.99301574  0.69103386    -0.04100
C233        C  0.46254166  0.01544380  0.71585247    -0.01200
C234        C  0.45989042  0.01742969  0.77071277     0.03800
C235        C  0.58402902  0.95563251  0.80821700     0.38400
C236        C  0.42133917  0.03627543  0.68461294     0.38400
C237        C  0.41612642  0.04063675  0.79515087     0.36800
C238        C  0.58748861  0.94748992  0.69768590     0.36800
N239        N  0.38127407  0.05947157  0.81458042    -0.38000
N240        N  0.62169860  0.92746537  0.67816924    -0.38000
N241        N  0.38878896  0.05297126  0.65927622    -0.37400
N242        N  0.61755022  0.94081218  0.83332690    -0.37500
C243        C  0.49932460  0.99876309  0.19142051    -0.04100
C244        C  0.45611978  0.98949796  0.22088728    -0.01200
C245        C  0.45865450  0.98843076  0.27584390     0.03800
C246        C  0.50416889  0.99759128  0.30231759    -0.04100
C247        C  0.54738412  0.00666029  0.27290205    -0.01200
C248        C  0.54514022  0.00645015  0.21792590     0.03800
C249        C  0.40902653  0.98046911  0.19455128     0.38400
C250        C  0.59445820  0.01546822  0.29938007     0.38400
C251        C  0.59045169  0.01227824  0.18841748     0.36800
C252        C  0.41446579  0.97729364  0.30542809     0.36800
N253        N  0.62666644  0.01631781  0.16475929    -0.38000
N254        N  0.37944694  0.96808458  0.32932337    -0.38000
N255        N  0.63199786  0.02257117  0.32060343    -0.37400
N256        N  0.37138296  0.97312931  0.17362795    -0.37500
C257        C  0.99993534  0.00986184  0.81322885    -0.04100
C258        C  0.95574269  0.01216600  0.78252849    -0.01200
C259        C  0.95840458  0.01214396  0.72764135     0.03800
C260        C  0.00521991  0.00898747  0.70257048    -0.04100
C261        C  0.04940558  0.00853139  0.73324322    -0.01200
C262        C  0.04675076  0.00972121  0.78812113     0.03800
C263        C  0.90748127  0.01579864  0.80756013     0.38400
C264        C  0.09767199  0.00702311  0.70814829     0.38400
C265        C  0.09220349  0.01226104  0.81902185     0.36800
C266        C  0.91292475  0.01628043  0.69666407     0.36800
N267        N  0.12827174  0.01497383  0.84396211    -0.38000
N268        N  0.87681742  0.02001118  0.67164771    -0.38000
N269        N  0.13615605  0.00580754  0.68796621    -0.37400
N270        N  0.86899177  0.01921744  0.82761424    -0.37500
C271        C  0.99773198  0.99824035  0.20265093    -0.04100
C272        C  0.04429854  0.98930084  0.22821194    -0.01200
C273        C  0.04740249  0.98746140  0.28314332     0.03800
C274        C  0.00383004  0.99323123  0.31351705    -0.04100
C275        C  0.95709596  0.00091441  0.28796336    -0.01200
C276        C  0.95417677  0.00440631  0.23307848     0.03800
C277        C  0.08930214  0.98272494  0.19776905     0.38400
C278        C  0.91192169  0.00523146  0.31844243     0.38400
C279        C  0.90636436  0.01530107  0.20786491     0.36800
C280        C  0.09567355  0.98025519  0.30861196     0.36800
N281        N  0.86822991  0.02452670  0.18780254    -0.38000
N282        N  0.13422007  0.97465765  0.32899610    -0.38000
N283        N  0.87597148  0.00826454  0.34300858    -0.37400
N284        N  0.12515719  0.97744174  0.17333369    -0.37500
C285        C  0.50527789  0.29386523  0.50305952    -0.04100
C286        C  0.45964865  0.26731833  0.50319675    -0.01200
C287        C  0.45997755  0.21287698  0.50275052     0.03800
C288        C  0.50571615  0.18441166  0.50074606    -0.04100
C289        C  0.55124544  0.21058771  0.50145375    -0.01200
C290        C  0.55116999  0.26500279  0.50354924     0.03800
C291        C  0.41218667  0.29588972  0.50579055     0.38400
C292        C  0.59825073  0.18114123  0.50042177     0.38400
C293        C  0.59853537  0.29092241  0.50562206     0.36800
C294        C  0.41322437  0.18598851  0.50517832     0.36800
N295        N  0.63645654  0.31131203  0.50783237    -0.38000
N296        N  0.37587764  0.16465425  0.50742469    -0.38000
N297        N  0.63554795  0.15732255  0.49969523    -0.37400
N298        N  0.37444846  0.31885449  0.50782379    -0.37500
C299        C  0.50381543  0.69646222  0.49408655    -0.04100
C300        C  0.54833568  0.72151580  0.50780402    -0.01200
C301        C  0.54973259  0.77586231  0.50712251     0.03800
C302        C  0.50651591  0.80554638  0.49337612    -0.04100
C303        C  0.46195585  0.78056340  0.47992636    -0.01200
C304        C  0.46076609  0.72618867  0.47964351     0.03800
C305        C  0.59233040  0.69142586  0.52414453     0.38400
C306        C  0.41718335  0.81099793  0.46701562     0.38400
C307        C  0.41579081  0.70079208  0.46262357     0.36800
C308        C  0.59559913  0.80142836  0.52078423     0.36800
N309        N  0.38009985  0.68044126  0.44865350    -0.38000
N310        N  0.63214957  0.82191036  0.53168827    -0.38000
N311        N  0.38146874  0.83541047  0.45695275    -0.37400
N312        N  0.62733387  0.66737993  0.53732697    -0.37500
C313        C  0.49962999  0.29734377  0.99745715    -0.04100
C314        C  0.45409631  0.27186070  0.98905044    -0.01200
C315        C  0.45344331  0.21748844  0.98779220     0.03800
C316        C  0.49794417  0.18801808  0.99637509    -0.04100
C317        C  0.54344064  0.21318477  0.00467729    -0.01200
C318        C  0.54452275  0.26762767  0.00438505     0.03800
C319        C  0.40801373  0.30160420  0.97975084     0.38400
C320        C  0.58913878  0.18269830  0.01336977     0.38400
C321        C  0.59182754  0.29277126  0.01195502     0.36800
C322        C  0.40702409  0.19173945  0.97695141     0.36800
N323        N  0.62980873  0.31247715  0.01763828    -0.38000
N324        N  0.36999076  0.17133350  0.96790739    -0.38000
N325        N  0.62533849  0.15799517  0.02038705    -0.37400
N326        N  0.37142442  0.32559382  0.97242174    -0.37500
C327        C  0.49002809  0.70070545  0.99837027    -0.04100
C328        C  0.44604326  0.72968397  0.01048479    -0.01200
C329        C  0.44611023  0.78413151  0.00967047     0.03800
C330        C  0.49002069  0.80986559  0.99650412    -0.04100
C331        C  0.53389604  0.78095513  0.98428457    -0.01200
C332        C  0.53405776  0.72659374  0.98565150     0.03800
C333        C  0.40131577  0.70355718  0.02585755     0.38400
C334        C  0.57894811  0.80735502  0.97043916     0.38400
C335        C  0.57945926  0.69724769  0.97324053     0.36800
C336        C  0.40115932  0.81390068  0.02267148     0.36800
N337        N  0.61566230  0.67373689  0.96355917    -0.38000
N338        N  0.36544867  0.83786846  0.03313386    -0.38000
N339        N  0.61475402  0.82855497  0.95921692    -0.37400
N340        N  0.36567887  0.68278995  0.03841783    -0.37500
C341        C  0.49706854  0.49866357  0.80193780    -0.04100
C342        C  0.50381037  0.54547664  0.77543569    -0.01200
C343        C  0.50500300  0.54581037  0.72112137     0.03800
C344        C  0.49917249  0.49941878  0.69342746    -0.04100
C345        C  0.49143846  0.45281118  0.71981236    -0.01200
C346        C  0.49077564  0.45233024  0.77413572     0.03800
C347        C  0.51078321  0.59310341  0.80400261     0.38400
C348        C  0.48169631  0.40591268  0.69094789     0.38400
C349        C  0.48161484  0.40456331  0.80121388     0.36800
C350        C  0.51331672  0.59364271  0.69379964     0.36800
N351        N  0.47421058  0.36642782  0.82262859    -0.38000
N352        N  0.51982212  0.63171454  0.67190769    -0.38000
N353        N  0.47359133  0.36883488  0.66764478    -0.37400
N354        N  0.51617877  0.63106616  0.82679362    -0.37500
C355        C  0.49252719  0.49675956  0.19391429    -0.04100
C356        C  0.47424083  0.53979858  0.22211230    -0.01200
C357        C  0.47519965  0.53853852  0.27645916     0.03800
C358        C  0.49387407  0.49401495  0.30221330    -0.04100
C359        C  0.51099289  0.45051789  0.27400007    -0.01200
C360        C  0.51015454  0.45182744  0.21968359     0.03800
C361        C  0.45297034  0.58450868  0.19519761     0.38400
C362        C  0.53130749  0.40533761  0.30086746     0.38400
C363        C  0.52847830  0.40748734  0.19025812     0.36800
C364        C  0.45640450  0.58262202  0.30596948     0.36800
N365        N  0.54296117  0.37222645  0.16661615    -0.38000
N366        N  0.44153104  0.61763882  0.32972993    -0.38000
N367        N  0.54772586  0.36946612  0.32235992    -0.37400
N368        N  0.43566187  0.61996470  0.17370506    -0.37500
C369        C  0.01306729  0.29901835  0.49738584    -0.04100
C370        C  0.05955696  0.27124436  0.49902190    -0.01200
C371        C  0.06083190  0.21673503  0.49994883     0.03800
C372        C  0.01588272  0.18962661  0.50081575    -0.04100
C373        C  0.96955939  0.21708869  0.49950332    -0.01200
C374        C  0.96805958  0.27144173  0.49720363     0.03800
C375        C  0.10622397  0.29843181  0.49844499     0.38400
C376        C  0.92333967  0.18915777  0.50095802     0.38400
C377        C  0.91991971  0.29887452  0.49622589     0.36800
C378        C  0.10834445  0.18820447  0.49942926     0.36800
N379        N  0.88154651  0.32076904  0.49522737    -0.38000
N380        N  0.14606649  0.16512502  0.49867504    -0.38000
N381        N  0.88653610  0.16679266  0.50230400    -0.37400
N382        N  0.14361341  0.31985681  0.49816323    -0.37500
C383        C  0.99493127  0.70178471  0.51164313    -0.04100
C384        C  0.95021786  0.73253241  0.51097830    -0.01200
C385        C  0.95241695  0.78690225  0.51298836     0.03800
C386        C  0.99909823  0.81094202  0.51559304    -0.04100
C387        C  0.04343772  0.78027713  0.51998446    -0.01200
C388        C  0.04131345  0.72599016  0.51883585     0.03800
C389        C  0.90189339  0.70861937  0.50771613     0.38400
C390        C  0.09127540  0.80466505  0.52627652     0.38400
C391        C  0.08662617  0.69493725  0.52804733     0.36800
C392        C  0.90665892  0.81841404  0.51221760     0.36800
N393        N  0.12241153  0.66986175  0.53604586    -0.38000
N394        N  0.87026301  0.84373324  0.51180397    -0.38000
N395        N  0.12947555  0.82398944  0.53165822    -0.37400
N396        N  0.86319554  0.68976205  0.50562503    -0.37500
C397        C  0.80494726  0.48983940  0.49254520    -0.04100
C398        C  0.77652584  0.48709054  0.44615474    -0.01200
C399        C  0.72365889  0.48598255  0.44778113     0.03800
C400        C  0.69836862  0.48997520  0.49562257    -0.04100
C401        C  0.72686452  0.49233627  0.54204275    -0.01200
C402        C  0.77974348  0.49075749  0.54053790     0.03800
C403        C  0.80138542  0.48711648  0.39647738     0.38400
C404        C  0.70203170  0.49841360  0.59150874     0.38400
C405        C  0.80828849  0.48812903  0.58869455     0.36800
C406        C  0.69535167  0.47884662  0.40014770     0.36800
N407        N  0.83125224  0.48547583  0.62690833    -0.38000
N408        N  0.67260285  0.47266447  0.36235839    -0.38000
N409        N  0.68250859  0.50363394  0.63106597    -0.37400
N410        N  0.82106530  0.48738720  0.35676205    -0.37500
C411        C  0.30395614  0.49923666  0.49885450    -0.04100
C412        C  0.27628688  0.49230070  0.45230069    -0.01200
C413        C  0.22337293  0.49540329  0.45235293     0.03800
C414        C  0.19733613  0.50443144  0.49895249    -0.04100
C415        C  0.22464207  0.51139208  0.54544944    -0.01200
C416        C  0.27758454  0.50874091  0.54549568     0.03800
C417        C  0.30199888  0.48290220  0.40381794     0.38400
C418        C  0.19824239  0.52298555  0.59315010     0.38400
C419        C  0.30464891  0.51416452  0.59414990     0.36800
C420        C  0.19553923  0.48841490  0.40436580     0.36800
N421        N  0.32604407  0.51845532  0.63306454    -0.38000
N422        N  0.17309966  0.48309569  0.36623253    -0.38000
N423        N  0.17730170  0.53254576  0.63116430    -0.37400
N424        N  0.32232144  0.47514905  0.36507879    -0.37500
C425        C  0.99243462  0.19373539  0.01206042    -0.04100
C426        C  0.94787942  0.22380786  0.01703487    -0.01200
C427        C  0.94879987  0.27803130  0.01249899     0.03800
C428        C  0.99473341  0.30277217  0.00510420    -0.04100
C429        C  0.03946217  0.27251076  0.00107781    -0.01200
C430        C  0.03803765  0.21820328  0.00313473     0.03800
C431        C  0.90091908  0.19871114  0.02571662     0.38400
C432        C  0.08683279  0.29704780  0.99286243     0.38400
C433        C  0.08318041  0.18720466  0.99396485     0.36800
C434        C  0.90239556  0.30830404  0.01590213     0.36800
N435        N  0.11893200  0.16233607  0.98587791    -0.38000
N436        N  0.86539475  0.33252238  0.01815423    -0.38000
N437        N  0.12461981  0.31669440  0.98657227    -0.37400
N438        N  0.86345705  0.17870250  0.03275840    -0.37500
C439        C  0.99602834  0.81448460  0.00146020    -0.04100
C440        C  0.04094888  0.78525408  0.00866239    -0.01200
C441        C  0.04070129  0.73083616  0.00670590     0.03800
C442        C  0.99541297  0.70523487  0.99751884    -0.04100
C443        C  0.95053962  0.73462120  0.98986397    -0.01200
C444        C  0.95088077  0.78901519  0.99190549     0.03800
C445        C  0.08744983  0.81137365  0.01800466     0.38400
C446        C  0.90425659  0.70895503  0.97803309     0.38400
C447        C  0.90480088  0.81901022  0.98392805     0.36800
C448        C  0.08688583  0.70117904  0.01561086     0.36800
N449        N  0.86811044  0.84307000  0.97750740    -0.38000
N450        N  0.12363915  0.67739330  0.02271823    -0.38000
N451        N  0.86744094  0.68837347  0.96840094    -0.37400
N452        N  0.12451321  0.83230188  0.02543136    -0.37500
C453        C  0.69186779  0.50385068  0.99747378    -0.04100
C454        C  0.71824224  0.49849062  0.95026857    -0.01200
C455        C  0.77109170  0.50078896  0.94960712     0.03800
C456        C  0.79865608  0.50727574  0.99618539    -0.04100
C457        C  0.77227007  0.51372457  0.04320425    -0.01200
C458        C  0.71940901  0.51196606  0.04383930     0.03800
C459        C  0.69113451  0.49233105  0.90172128     0.38400
C460        C  0.79935372  0.52124645  0.09154895     0.38400
C461        C  0.69363207  0.51680003  0.09291845     0.36800
C462        C  0.79685631  0.49942840  0.90034836     0.36800
N463        N  0.67301457  0.52075601  0.13199618    -0.38000
N464        N  0.81747394  0.49887642  0.86113401    -0.38000
N465        N  0.82083394  0.52763000  0.13008962    -0.37400
N466        N  0.66971634  0.48728959  0.86292028    -0.37500
C467        C  0.19211267  0.50181400  0.99300970    -0.04100
C468        C  0.21881049  0.50819534  0.04003559    -0.01200
C469        C  0.27170139  0.50719605  0.04058057     0.03800
C470        C  0.29848572  0.50047274  0.99397011    -0.04100
C471        C  0.27173933  0.49538328  0.94673640    -0.01200
C472        C  0.21880276  0.49610890  0.94625652     0.03800
C473        C  0.19173985  0.51874547  0.08754498     0.38400
C474        C  0.29869337  0.48782258  0.89868115     0.38400
C475        C  0.19180974  0.48997421  0.89766712     0.36800
C476        C  0.29850549  0.51531541  0.08896550     0.36800
N477        N  0.17015951  0.48526139  0.85896077    -0.38000
N478        N  0.31988020  0.52194140  0.12752171    -0.38000
N479        N  0.32024771  0.48175765  0.86038865    -0.37400
N480        N  0.16993254  0.52766501  0.12517575    -0.37500
C481        C  0.99397441  0.50071909  0.79993434    -0.04100
C482        C  0.98466155  0.54701488  0.77251000    -0.01200
C483        C  0.98642805  0.54698894  0.71827185     0.03800
C484        C  0.99719731  0.50042682  0.69141992    -0.04100
C485        C  0.00691804  0.45415431  0.71906296    -0.01200
C486        C  0.00518474  0.45434872  0.77331434     0.03800
C487        C  0.97253481  0.59462564  0.80006236     0.38400
C488        C  0.01828355  0.40612022  0.69190454     0.38400
C489        C  0.01658869  0.40710704  0.80170748     0.36800
C490        C  0.97897485  0.59534824  0.69049454     0.36800
N491        N  0.02577854  0.36935583  0.82411485    -0.38000
N492        N  0.97305565  0.63388756  0.66843567    -0.38000
N493        N  0.02774046  0.36810165  0.67003512    -0.37400
N494        N  0.96294661  0.63256972  0.82199372    -0.37500
C495        C  0.00494484  0.50494354  0.30051266    -0.04100
C496        C  0.01110694  0.45829980  0.27268230    -0.01200
C497        C  0.00846311  0.45860578  0.21841944     0.03800
C498        C  0.00111920  0.50582426  0.19172195    -0.04100
C499        C  0.99636983  0.55265865  0.21960237    -0.01200
C500        C  0.99812681  0.55217387  0.27395125     0.03800
C501        C  0.02148061  0.40998988  0.29969307     0.38400
C502        C  0.99046553  0.60157380  0.19260927     0.38400
C503        C  0.99154746  0.60024504  0.30243293     0.36800
C504        C  0.01153801  0.40993383  0.19038293     0.36800
N505        N  0.98642963  0.63852294  0.32518493    -0.38000
N506        N  0.01394081  0.37119189  0.16804186    -0.38000
N507        N  0.98558888  0.64057155  0.17117711    -0.37400
N508        N  0.02990699  0.37144491  0.32100677    -0.37500
loop_ 
_geom_bond_atom_site_label_1 
_geom_bond_atom_site_label_2 
_geom_bond_distance 
_geom_bond_site_symmetry_2 
_ccdc_geom_bond_type 
Zn1           O5   1.957   1_554  S
Zn1           O6   2.023       .  S
Zn1          O10   2.021       .  S
Zn1          O17   1.989       .  S
Zn2           O5   1.956       .  S
Zn2           O7   1.990       .  S
Zn2           O9   2.030       .  S
Zn2          O13   2.020       .  S
Zn3           O5   1.953   1_455  S
Zn3           O8   2.018       .  S
Zn3          O11   1.975       .  S
Zn3          O14   2.022       .  S
Zn4           O5   1.952   1_454  S
Zn4          O12   2.020       .  S
Zn4          O15   2.020       .  S
Zn4          O16   1.970       .  S
O6           C18   1.273   1_554  A
O7           C19   1.272       .  A
O8           C20   1.273   1_455  A
O9           C18   1.274       .  A
O10          C20   1.273   1_554  A
O11          C19   1.271   1_455  A
O12          C21   1.272   1_554  A
O13          C22   1.273   1_556  A
O14          C21   1.272       .  A
O15          C22   1.273   1_455  A
O16          C23   1.270   1_455  A
O17          C23   1.272       .  A
C18         C456   1.500       .  S
C19         C481   1.462       .  S
C20         C442   1.487       .  S
C21         C467   1.489       .  S
C22         C428   1.490       .  S
C23         C498   1.470   1_655  S
Zn24         O28   1.954       .  S
Zn24         O29   2.025       .  S
Zn24         O33   1.970       .  S
Zn24         O40   2.015       .  S
Zn25         O28   1.954   1_655  S
Zn25         O30   2.042       .  S
Zn25         O32   2.020       .  S
Zn25         O36   1.982       .  S
Zn26         O28   1.954   1_655  S
Zn26         O31   1.968       .  S
Zn26         O34   2.010       .  S
Zn26         O37   2.019       .  S
Zn27         O28   1.951       .  S
Zn27         O35   2.024       .  S
Zn27         O38   1.985       .  S
Zn27         O39   2.027       .  S
O29          C41   1.273       .  A
O30          C42   1.275       .  A
O31          C43   1.270       .  A
O32          C41   1.274   1_655  A
O33          C43   1.270   1_455  A
O34          C42   1.272       .  A
O35          C44   1.275   1_455  A
O36          C45   1.273   1_655  A
O37          C44   1.272       .  A
O38          C45   1.273       .  A
O39          C46   1.273       .  A
O40          C46   1.271       .  A
C41         C369   1.492       .  S
C42         C397   1.495       .  S
C43         C484   1.467       .  S
C44         C383   1.493       .  S
C45         C495   1.467       .  S
C46         C414   1.488       .  S
Zn47         O51   1.956   1_554  S
Zn47         O52   1.997       .  S
Zn47         O56   2.016       .  S
Zn47         O63   2.032       .  S
Zn48         O51   1.953   1_554  S
Zn48         O53   2.027       .  S
Zn48         O55   1.976       .  S
Zn48         O59   2.018       .  S
Zn49         O51   1.959       .  S
Zn49         O54   2.025       .  S
Zn49         O57   2.024       .  S
Zn49         O60   1.984       .  S
Zn50         O51   1.964       .  S
Zn50         O58   1.988       .  S
Zn50         O61   2.025       .  S
Zn50         O62   2.026       .  S
O52          C64   1.273       .  A
O53          C65   1.273   1_554  A
O54          C66   1.273       .  A
O55          C64   1.270       .  A
O56          C66   1.272   1_554  A
O57          C65   1.273       .  A
O58          C67   1.272       .  A
O59          C68   1.273   1_554  A
O60          C67   1.272       .  A
O61          C68   1.273       .  A
O62          C69   1.273       .  A
O63          C69   1.275   1_554  A
C64         C355   1.460       .  S
C65         C470   1.490       .  S
C66         C327   1.485       .  S
C67         C341   1.465       .  S
C68         C313   1.491       .  S
C69         C453   1.501       .  S
Zn70         O74   1.958       .  S
Zn70         O75   2.021       .  S
Zn70         O79   1.984       .  S
Zn70         O86   2.026       .  S
Zn71         O74   1.952       .  S
Zn71         O76   2.026       .  S
Zn71         O78   2.015       .  S
Zn71         O82   1.983       .  S
Zn72         O74   1.959       .  S
Zn72         O77   1.979       .  S
Zn72         O80   2.030       .  S
Zn72         O83   2.023       .  S
Zn73         O74   1.957       .  S
Zn73         O81   2.015       .  S
Zn73         O84   1.989       .  S
Zn73         O85   2.035       .  S
O75          C87   1.273       .  A
O76          C88   1.273       .  A
O77          C89   1.271       .  A
O78          C87   1.272       .  A
O79          C89   1.272       .  A
O80          C88   1.273       .  A
O81          C90   1.273       .  A
O82          C91   1.271       .  A
O83          C90   1.273       .  A
O84          C91   1.272       .  A
O85          C92   1.274       .  A
O86          C92   1.273       .  A
C87         C299   1.484       .  S
C88         C400   1.496       .  S
C89         C344   1.463       .  S
C90         C285   1.493       .  S
C91         C358   1.460       .  S
C92         C411   1.499       .  S
N93          C98   1.355       .  A
N93          C97   1.361       .  A
N93         H125   1.029   1_655  S
N94         C101   1.359       .  A
N94         C102   1.354       .  A
N95         C100   1.360       .  A
N95          C99   1.353       .  A
N95         H126   1.030   1_655  S
N96         C103   1.353       .  A
N96         C104   1.358   1_655  A
C97         C105   1.385       .  A
C97         C113   1.426   1_565  A
C98         C114   1.426       .  A
C98         C106   1.389       .  A
C99         C107   1.389       .  A
C99         C116   1.423   1_556  A
C100        C115   1.422       .  A
C100        C108   1.385       .  A
C101        C113   1.424       .  A
C101        C109   1.385       .  A
C102        C116   1.425       .  A
C102        C110   1.388       .  A
C103        C111   1.389   1_655  A
C103        C114   1.424   1_556  A
C104        C112   1.384       .  A
C104        C115   1.422   1_465  A
C105        C106   1.378       .  A
C105        H117   1.082       .  S
C106        H118   1.082       .  S
C107        C108   1.375       .  A
C107        H119   1.082       .  S
C108        H120   1.082       .  S
C109        C110   1.376       .  A
C109        H121   1.082   1_655  S
C110        H122   1.082   1_655  S
C111        C112   1.374       .  A
C111        H123   1.082       .  S
C112        H124   1.082       .  S
C113        C271   1.521   1_545  S
C114        C439   1.499       .  S
C115        C257   1.518       .  S
C116        C425   1.498       .  S
N127        C132   1.355       .  A
N127        C131   1.361       .  A
N127        H159   1.034   1_455  S
N128        C135   1.357       .  A
N128        C136   1.353       .  A
N129        C134   1.361       .  A
N129        C133   1.354       .  A
N129        H160   1.031       .  S
N130        C137   1.353       .  A
N130        C138   1.358       .  A
C131        C139   1.386       .  A
C131        C147   1.425   1_565  A
C132        C148   1.427       .  A
C132        C140   1.389       .  A
C133        C141   1.389       .  A
C133        C150   1.426       .  A
C134        C149   1.427   1_545  A
C134        C142   1.386       .  A
C135        C147   1.421       .  A
C135        C143   1.384       .  A
C136        C150   1.424       .  A
C136        C144   1.389       .  A
C137        C145   1.389   1_455  A
C137        C148   1.426       .  A
C138        C146   1.384   1_455  A
C138        C149   1.424       .  A
C139        C140   1.377       .  A
C139        H151   1.082       .  S
C140        H152   1.082       .  S
C141        C142   1.375       .  A
C141        H153   1.082       .  S
C142        H154   1.082       .  S
C143        C144   1.374       .  A
C143        H155   1.082       .  S
C144        H156   1.082       .  S
C145        C146   1.376       .  A
C145        H157   1.082       .  S
C146        H158   1.082       .  S
C147        C260   1.517       .  S
C148        C386   1.500   1_455  S
C149        C274   1.520       .  S
C150        C372   1.498       .  S
N161        C166   1.353       .  A
N161        C165   1.360       .  A
N161        H193   1.036       .  S
N162        C169   1.358       .  A
N162        C170   1.353       .  A
N163        C168   1.361       .  A
N163        C167   1.353       .  A
N163        H194   1.034       .  S
N164        C171   1.352       .  A
N164        C172   1.357       .  A
C165        C173   1.386       .  A
C165        C181   1.423       .  A
C166        C182   1.423       .  A
C166        C174   1.389       .  A
C167        C175   1.390       .  A
C167        C184   1.425   1_554  A
C168        C183   1.425   1_545  A
C168        C176   1.385       .  A
C169        C181   1.421   1_545  A
C169        C177   1.384       .  A
C170        C184   1.423       .  A
C170        C178   1.389       .  A
C171        C179   1.388       .  A
C171        C182   1.421   1_554  A
C172        C180   1.384       .  A
C172        C183   1.420       .  A
C173        C174   1.377       .  A
C173        H185   1.082       .  S
C174        H186   1.082       .  S
C175        C176   1.379       .  A
C175        H187   1.082       .  S
C176        H188   1.082       .  S
C177        C178   1.375       .  A
C177        H189   1.082       .  S
C178        H190   1.082       .  S
C179        C180   1.373       .  A
C179        H191   1.082       .  S
C180        H192   1.082       .  S
C181        C229   1.520       .  S
C182        C330   1.497       .  S
C183        C243   1.519       .  S
C184        C316   1.498       .  S
N195        C200   1.354       .  A
N195        C199   1.360       .  A
N195        H227   1.035       .  S
N196        C203   1.357       .  A
N196        C204   1.353       .  A
N197        C202   1.361       .  A
N197        C201   1.354       .  A
N197        H228   1.037       .  S
N198        C205   1.353       .  A
N198        C206   1.357       .  A
C199        C207   1.386       .  A
C199        C215   1.424   1_545  A
C200        C216   1.424       .  A
C200        C208   1.389       .  A
C201        C209   1.389       .  A
C201        C218   1.422       .  A
C202        C217   1.423       .  A
C202        C210   1.385       .  A
C203        C215   1.421       .  A
C203        C211   1.385       .  A
C204        C218   1.421       .  A
C204        C212   1.388       .  A
C205        C213   1.388       .  A
C205        C216   1.421       .  A
C206        C214   1.385       .  A
C206        C217   1.420   1_545  A
C207        C208   1.378       .  A
C207        H219   1.082       .  S
C208        H220   1.082       .  S
C209        C210   1.377       .  A
C209        H221   1.082       .  S
C210        H222   1.082       .  S
C211        C212   1.375       .  A
C211        H223   1.082       .  S
C212        H224   1.082       .  S
C213        C214   1.372       .  A
C213        H225   1.082       .  S
C214        H226   1.082       .  S
C215        C246   1.517       .  S
C216        C288   1.498       .  S
C217        C232   1.520       .  S
C218        C302   1.498       .  S
C229        C230   1.416       .  A
C229        C234   1.416   1_565  A
C230        C231   1.420       .  A
C230        C235   1.450       .  S
C231        C232   1.416       .  A
C231        C238   1.450       .  S
C232        C233   1.416   1_565  A
C233        C234   1.420       .  A
C233        C236   1.450       .  S
C234        C237   1.449       .  S
C235        N242   1.157       .  T
C236        N241   1.157       .  T
C237        N239   1.157       .  T
C238        N240   1.157       .  T
C243        C244   1.416       .  A
C243        C248   1.415   1_565  A
C244        C245   1.420       .  A
C244        C249   1.449       .  S
C245        C246   1.415       .  A
C245        C252   1.450       .  S
C246        C247   1.415   1_565  A
C247        C248   1.420       .  A
C247        C250   1.449       .  S
C248        C251   1.449       .  S
C249        N256   1.157       .  T
C250        N255   1.157       .  T
C251        N253   1.157       .  T
C252        N254   1.157       .  T
C257        C258   1.415       .  A
C257        C262   1.415   1_655  A
C258        C259   1.420       .  A
C258        C263   1.449       .  S
C259        C260   1.415   1_655  A
C259        C266   1.449       .  S
C260        C261   1.415       .  A
C261        C262   1.420       .  A
C261        C264   1.449       .  S
C262        C265   1.449       .  S
C263        N270   1.157       .  T
C264        N269   1.157       .  T
C265        N267   1.157       .  T
C266        N268   1.157       .  T
C271        C272   1.416   1_655  A
C271        C276   1.416   1_565  A
C272        C273   1.421       .  A
C272        C277   1.449       .  S
C273        C274   1.415       .  A
C273        C280   1.449       .  S
C274        C275   1.415   1_465  A
C275        C276   1.421       .  A
C275        C278   1.449       .  S
C276        C279   1.449       .  S
C277        N284   1.157       .  T
C278        N283   1.157       .  T
C279        N281   1.157       .  T
C280        N282   1.157       .  T
C285        C286   1.418       .  A
C285        C290   1.418       .  A
C286        C287   1.412       .  A
C286        C291   1.452       .  S
C287        C288   1.410       .  A
C287        C294   1.451       .  S
C288        C289   1.410       .  A
C289        C290   1.412       .  A
C289        C292   1.451       .  S
C290        C293   1.451       .  S
C291        N298   1.158       .  T
C292        N297   1.157       .  T
C293        N295   1.157       .  T
C294        N296   1.157       .  T
C299        C300   1.414       .  A
C299        C304   1.413       .  A
C300        C301   1.411       .  A
C300        C305   1.451       .  S
C301        C302   1.412       .  A
C301        C308   1.450       .  S
C302        C303   1.412       .  A
C303        C304   1.411       .  A
C303        C306   1.450       .  S
C304        C307   1.451       .  S
C305        N312   1.157       .  T
C306        N311   1.157       .  T
C307        N309   1.157       .  T
C308        N310   1.157       .  T
C313        C314   1.416       .  A
C313        C318   1.417   1_556  A
C314        C315   1.411       .  A
C314        C319   1.452       .  S
C315        C316   1.410       .  A
C315        C322   1.450       .  S
C316        C317   1.411   1_556  A
C317        C318   1.413       .  A
C317        C320   1.451       .  S
C318        C321   1.450       .  S
C319        N326   1.157       .  T
C320        N325   1.157       .  T
C321        N323   1.157       .  T
C322        N324   1.157       .  T
C327        C328   1.414   1_556  A
C327        C332   1.414       .  A
C328        C329   1.412       .  A
C328        C333   1.451       .  S
C329        C330   1.412   1_554  A
C329        C336   1.450       .  S
C330        C331   1.411       .  A
C331        C332   1.410       .  A
C331        C334   1.451       .  S
C332        C335   1.451       .  S
C333        N340   1.157       .  T
C334        N339   1.157       .  T
C335        N337   1.157       .  T
C336        N338   1.157       .  T
C341        C342   1.412       .  A
C341        C346   1.411       .  A
C342        C343   1.403       .  A
C342        C347   1.453       .  S
C343        C344   1.410       .  A
C343        C350   1.453       .  S
C344        C345   1.411       .  A
C345        C346   1.403       .  A
C345        C348   1.453       .  S
C346        C349   1.452       .  S
C347        N354   1.157       .  T
C348        N353   1.158       .  T
C349        N351   1.157       .  T
C350        N352   1.157       .  T
C355        C356   1.409       .  A
C355        C360   1.410       .  A
C356        C357   1.404       .  A
C356        C361   1.452       .  S
C357        C358   1.410       .  A
C357        C364   1.452       .  S
C358        C359   1.409       .  A
C359        C360   1.403       .  A
C359        C362   1.452       .  S
C360        C363   1.452       .  S
C361        N368   1.157       .  T
C362        N367   1.157       .  T
C363        N365   1.157       .  T
C364        N366   1.157       .  T
C369        C370   1.418       .  A
C369        C374   1.417   1_455  A
C370        C371   1.413       .  A
C370        C375   1.451       .  S
C371        C372   1.410       .  A
C371        C378   1.451       .  S
C372        C373   1.410   1_455  A
C373        C374   1.410       .  A
C373        C376   1.451       .  S
C374        C377   1.452       .  S
C375        N382   1.157       .  T
C376        N381   1.157       .  T
C377        N379   1.157       .  T
C378        N380   1.157       .  T
C383        C384   1.417       .  A
C383        C388   1.416   1_655  A
C384        C385   1.414       .  A
C384        C389   1.450       .  S
C385        C386   1.412       .  A
C385        C392   1.450       .  S
C386        C387   1.411   1_655  A
C387        C388   1.411       .  A
C387        C390   1.450       .  S
C388        C391   1.452       .  S
C389        N396   1.157       .  T
C390        N395   1.157       .  T
C391        N393   1.158       .  T
C392        N394   1.157       .  T
C397        C398   1.414       .  A
C397        C402   1.416       .  A
C398        C399   1.415       .  A
C398        C403   1.451       .  S
C399        C400   1.416       .  A
C399        C406   1.451       .  S
C400        C401   1.415       .  A
C401        C402   1.413       .  A
C401        C404   1.451       .  S
C402        C405   1.453       .  S
C403        N410   1.157       .  T
C404        N409   1.157       .  T
C405        N407   1.158       .  T
C406        N408   1.157       .  T
C411        C412   1.418       .  A
C411        C416   1.419       .  A
C412        C413   1.414       .  A
C412        C417   1.451       .  S
C413        C414   1.412       .  A
C413        C420   1.452       .  S
C414        C415   1.412       .  A
C415        C416   1.414       .  A
C415        C418   1.452       .  S
C416        C419   1.451       .  S
C417        N424   1.157       .  T
C418        N423   1.158       .  T
C419        N421   1.158       .  T
C420        N422   1.157       .  T
C425        C426   1.411       .  A
C425        C430   1.412   1_655  A
C426        C427   1.412       .  A
C426        C431   1.450       .  S
C427        C428   1.417       .  A
C427        C434   1.451       .  S
C428        C429   1.415   1_655  A
C429        C430   1.411       .  A
C429        C432   1.451   1_554  S
C430        C433   1.451   1_554  S
C431        N438   1.157       .  T
C432        N437   1.157       .  T
C433        N435   1.157       .  T
C434        N436   1.157       .  T
C439        C440   1.412   1_655  A
C439        C444   1.411   1_554  A
C440        C441   1.412       .  A
C440        C445   1.450       .  S
C441        C442   1.415   1_454  A
C441        C448   1.451       .  S
C442        C443   1.414       .  A
C443        C444   1.412       .  A
C443        C446   1.451       .  S
C444        C447   1.450       .  S
C445        N452   1.157       .  T
C446        N451   1.157       .  T
C447        N449   1.157       .  T
C448        N450   1.157       .  T
C453        C454   1.419       .  A
C453        C458   1.417   1_556  A
C454        C455   1.415       .  A
C454        C459   1.452       .  S
C455        C456   1.416       .  A
C455        C462   1.452       .  S
C456        C457   1.417   1_556  A
C457        C458   1.415       .  A
C457        C460   1.452       .  S
C458        C461   1.452       .  S
C459        N466   1.158       .  T
C460        N465   1.157       .  T
C461        N463   1.157       .  T
C462        N464   1.158       .  T
C467        C468   1.414   1_556  A
C467        C472   1.414       .  A
C468        C469   1.413       .  A
C468        C473   1.452       .  S
C469        C470   1.414   1_554  A
C469        C476   1.451       .  S
C470        C471   1.415       .  A
C471        C472   1.414       .  A
C471        C474   1.451       .  S
C472        C475   1.451       .  S
C473        N480   1.157       .  T
C474        N479   1.157       .  T
C475        N477   1.157       .  T
C476        N478   1.157       .  T
C481        C482   1.410       .  A
C481        C486   1.410   1_655  A
C482        C483   1.402       .  A
C482        C487   1.453       .  S
C483        C484   1.414       .  A
C483        C490   1.454       .  S
C484        C485   1.414   1_655  A
C485        C486   1.402       .  A
C485        C488   1.454       .  S
C486        C489   1.452       .  S
C487        N494   1.157       .  T
C488        N493   1.158       .  T
C489        N491   1.157       .  T
C490        N492   1.158       .  T
C495        C496   1.412       .  A
C495        C500   1.412   1_455  A
C496        C497   1.402       .  A
C496        C501   1.454       .  S
C497        C498   1.414       .  A
C497        C504   1.454       .  S
C498        C499   1.413   1_455  A
C499        C500   1.404       .  A
C499        C502   1.453       .  S
C500        C503   1.453       .  S
C501        N508   1.158       .  T
C502        N507   1.157       .  T
C503        N505   1.157       .  T
C504        N506   1.158       .  T
