geometry optimzed in LAMMPS
_audit_creation_date              2020-11-30 
_audit_creation_method            'lammps2cif' 
_symmetry_space_group_name_H-M    'P1' 
_symmetry_Int_Tables_number       1 
_symmetry_cell_setting            triclinic 
loop_ 
_symmetry_equiv_pos_as_xyz 
  x,y,z 
_cell_length_a                    28.00038342 
_cell_length_b                    27.960250486191846 
_cell_length_c                    27.957942087580715 
_cell_angle_alpha                 89.96368905159542 
_cell_angle_beta                  90.02237696094954 
_cell_angle_gamma                 89.99224378650892 
loop_ 
_atom_site_label 
_atom_site_type_symbol 
_atom_site_fract_x 
_atom_site_fract_y 
_atom_site_fract_z 
_atom_site_charge 
O1          O  0.00189454  0.07633270  0.13617794    -0.78900
O2          O  0.00148305  0.07706287  0.86229426    -0.80500
O3          O  0.08281376  0.13199909  0.99994738    -0.77500
O4          O  0.92627388  0.13791613  0.99815845    -0.75900
O5          O  0.86740936  0.08145939  0.99583393    -0.77700
O6          O  0.13902730  0.07264822  0.00480065    -0.78600
O7          O  0.99854413  0.13469350  0.92041888    -0.79900
O8          O  0.00380871  0.13398817  0.07829758    -0.80200
Eu9        Eu  0.00298518  0.09541192  0.99918700     2.39200
O10         O  0.95447082  0.04809695  0.94973300    -0.87700
O11         O  0.04950652  0.04530783  0.04811016    -0.91300
C12         C  0.00334925  0.12045971  0.12248981     1.03400
C13         C  0.99873150  0.12089589  0.87634920     1.03200
C14         C  0.12634375  0.11698272  0.00300010     1.03100
C15         C  0.88194848  0.12536496  0.99650067     1.01000
H16         H  0.07223307  0.06601060  0.93175398     0.30700
O17         O  0.05173407  0.04625793  0.95128244    -1.00100
H18         H  0.93273530  0.06854322  0.06682485     0.30800
O19         O  0.95244235  0.04823318  0.04707431    -1.02600
O20         O  0.00721485  0.92115380  0.86197196    -0.79900
O21         O  0.99250115  0.91904239  0.13320778    -0.79400
O22         O  0.13797095  0.99602238  0.92252273    -0.77800
O23         O  0.86585723  0.00067857  0.91805362    -0.81200
O24         O  0.86314306  0.99986297  0.07519720    -0.79000
O25         O  0.13630399  0.99348616  0.07963477    -0.77700
O26         O  0.07503129  0.85956017  0.00077678    -0.79200
O27         O  0.91882987  0.86422746  0.99714753    -0.81100
O28         O  0.13454875  0.91559454  0.99994991    -0.77900
O29         O  0.86257033  0.92342673  0.99770316    -0.80500
O30         O  0.08167891  0.99895834  0.86345727    -0.76300
O31         O  0.07751501  0.99521810  0.13634563    -0.76300
O32         O  0.92003394  0.99862365  0.13357796    -0.76000
O33         O  0.92491278  0.99995031  0.86143362    -0.79500
O34         O  0.00134894  0.86341184  0.91985257    -0.78900
O35         O  0.99215110  0.86056429  0.07639713    -0.77200
Eu36       Eu  0.00283522  0.99885066  0.90196878     2.39800
Eu37       Eu  0.99927793  0.99811474  0.09586552     2.39600
Eu38       Eu  0.09765629  0.99542952  0.00068415     2.38400
Eu39       Eu  0.90381929  0.00100148  0.99723082     2.39900
Eu40       Eu  0.99811569  0.90141197  0.99871820     2.39800
O41         O  0.95045815  0.95135935  0.04624033    -0.91600
O42         O  0.04884065  0.94854656  0.95115528    -0.90500
C43         C  0.00544349  0.87729054  0.87604804     1.03600
C44         C  0.99049606  0.87480152  0.12028854     1.02300
C45         C  0.12539035  0.99781847  0.87810414     1.01700
C46         C  0.88063584  0.00040664  0.87431975     1.03700
C47         C  0.87609737  0.99887032  0.11953244     1.02600
C48         C  0.12184917  0.99396863  0.12348457     1.01400
C49         C  0.11940598  0.87197300  0.00070223     1.01500
C50         C  0.87517127  0.87900707  0.99741121     1.04100
H51         H  0.06612363  0.92717348  0.06892904     0.31500
O52         O  0.04736261  0.94787323  0.04862099    -1.03800
H53         H  0.93200138  0.93152185  0.92858956     0.33500
O54         O  0.95178357  0.95107942  0.94902845    -1.06300
O55         O  0.00178798  0.42207737  0.36295354    -0.78900
O56         O  0.99798075  0.42246089  0.63646176    -0.80500
O57         O  0.08183504  0.36604474  0.49788147    -0.77500
O58         O  0.92627401  0.36167957  0.50174028    -0.75900
O59         O  0.86700177  0.41782344  0.50343610    -0.77700
O60         O  0.13840336  0.42500295  0.49425235    -0.78600
O61         O  0.99928294  0.36532688  0.57836718    -0.79900
O62         O  0.00242174  0.36409956  0.42081648    -0.80200
Eu63       Eu  0.00257808  0.40370742  0.49912349     2.39200
O64         O  0.95338455  0.45082680  0.54783989    -0.87700
O65         O  0.04933039  0.45339723  0.45030885    -0.91300
C66         C  0.00250400  0.37793440  0.37675705     1.03400
C67         C  0.99725843  0.37850666  0.62260518     1.03200
C68         C  0.12546461  0.38072765  0.49519030     1.03100
C69         C  0.88201251  0.37408050  0.50375341     1.01000
H70         H  0.07067962  0.43231816  0.56748482     0.30700
O71         O  0.05054104  0.45233118  0.54782485    -1.00100
H72         H  0.93274714  0.43056586  0.43053350     0.30800
O73         O  0.95247540  0.45082920  0.45032725    -1.02600
O74         O  0.00254610  0.57761693  0.63656950    -0.79900
O75         O  0.99899746  0.58122498  0.36508414    -0.79400
O76         O  0.13764720  0.49978141  0.57628785    -0.77800
O77         O  0.86467562  0.49985404  0.57838393    -0.81200
O78         O  0.86393947  0.49891278  0.42172326    -0.79000
O79         O  0.13599341  0.50183480  0.42010594    -0.77700
O80         O  0.07607953  0.63882039  0.49939350    -0.79200
O81         O  0.91839934  0.63392820  0.49760216    -0.81100
O82         O  0.13470277  0.58190580  0.49985165    -0.77900
O83         O  0.86180798  0.57499530  0.49574638    -0.80500
O84         O  0.07981776  0.49966451  0.63414770    -0.76300
O85         O  0.07843128  0.50063814  0.36234553    -0.76300
O86         O  0.92096120  0.50409157  0.36325735    -0.76000
O87         O  0.92263205  0.49932973  0.63616202    -0.79500
O88         O  0.00048020  0.63557594  0.57928810    -0.78900
O89         O  0.99521724  0.63847618  0.42356682    -0.77200
Eu90       Eu  0.00084843  0.50007873  0.59620866     2.39800
Eu91       Eu  0.99995665  0.50114541  0.40203201     2.39600
Eu92       Eu  0.09721135  0.50234509  0.49862550     2.38400
Eu93       Eu  0.90360741  0.49806389  0.49984789     2.39900
Eu94       Eu  0.99848769  0.59733498  0.50034710     2.39800
O95         O  0.95131920  0.54766974  0.45194176    -0.91600
O96         O  0.04851434  0.54973627  0.54807665    -0.90500
C97         C  0.00230807  0.62176600  0.62329794     1.03600
C98         C  0.99639594  0.62505147  0.37953595     1.02300
C99         C  0.12376123  0.49926550  0.62027352     1.01700
C100        C  0.87861601  0.49990093  0.62238058     1.03700
C101        C  0.87714295  0.50224619  0.37764870     1.02600
C102        C  0.12252285  0.50088734  0.37599857     1.01400
C103        C  0.12035792  0.62581830  0.49977468     1.01500
C104        C  0.87465052  0.61929856  0.49547110     1.04100
H105        H  0.06726728  0.57097391  0.43072352     0.31500
O106        O  0.04778865  0.55053306  0.45058789    -1.03800
H107        H  0.93051739  0.56790657  0.56871972     0.33500
O108        O  0.95061906  0.54817287  0.54877901    -1.06300
O109        O  0.63590842  0.00094411  0.41858414    -0.78900
O110        O  0.36349846  0.00366764  0.42379058    -0.80500
O111        O  0.49311105  0.92315462  0.36252765    -0.77500
O112        O  0.49752119  0.07940840  0.36376967    -0.75900
O113        O  0.50182032  0.13742339  0.42106536    -0.77700
O114        O  0.49455294  0.86540389  0.42049117    -0.78600
O115        O  0.42003885  0.00412258  0.36474917    -0.79900
O116        O  0.57684414  0.99876316  0.36187734    -0.80200
Eu117      Eu  0.49906747  0.00112981  0.40267699     2.39200
O118        O  0.45337592  0.05060881  0.45267718    -0.87700
O119        O  0.54752382  0.95086686  0.44946027    -0.91300
C120        C  0.62106469  0.99998492  0.37492858     1.03400
C121        C  0.37633051  0.00401573  0.37940311     1.03200
C122        C  0.49234756  0.87912389  0.37645162     1.03100
C123        C  0.49896752  0.12349917  0.37712346     1.01000
H124        H  0.42919559  0.93485613  0.43260438     0.30700
O125        O  0.45017051  0.95410305  0.45209867    -1.00100
H126        H  0.57007519  0.06861865  0.42958008     0.30800
O127        O  0.55010876  0.04894692  0.44973702    -1.02600
O128        O  0.36703211  0.00571111  0.58134224    -0.79900
O129        O  0.63892379  0.99764924  0.57477140    -0.79400
O130        O  0.41930075  0.86671166  0.49974530    -0.77800
O131        O  0.42689759  0.14031660  0.49708639    -0.81200
O132        O  0.58355734  0.13478495  0.50110084    -0.79000
O133        O  0.57503356  0.86198799  0.49651945    -0.77700
O134        O  0.50487732  0.92180897  0.63542635    -0.79200
O135        O  0.51090253  0.07922505  0.63506553    -0.81100
O136        O  0.49771707  0.86435856  0.57743460    -0.77900
O137        O  0.50973099  0.13797388  0.57834547    -0.80500
O138        O  0.36278974  0.92569724  0.50264737    -0.76300
O139        O  0.63419155  0.91824959  0.49517830    -0.76300
O140        O  0.63950139  0.07525258  0.50221057    -0.76000
O141        O  0.36824559  0.08368511  0.49732618    -0.79500
O142        O  0.42622602  0.00174056  0.63771512    -0.78900
O143        O  0.58270822  0.99967382  0.63389736    -0.77200
Eu144      Eu  0.40424549  0.00366619  0.50183388     2.39800
Eu145      Eu  0.59776431  0.99832082  0.49736995     2.39600
Eu146      Eu  0.49834118  0.90416900  0.49920206     2.38400
Eu147      Eu  0.50383025  0.09831306  0.49982672     2.39900
Eu148      Eu  0.50349195  0.00065830  0.59639021     2.39800
O149        O  0.55155034  0.04775780  0.54665156    -0.91600
O150        O  0.45229286  0.95354017  0.54925467    -0.90500
C151        C  0.38196634  0.00412532  0.62502275     1.03600
C152        C  0.62637230  0.99871996  0.61914937     1.02300
C153        C  0.37561644  0.88128745  0.50102167     1.01700
C154        C  0.38263364  0.12752835  0.49563210     1.03700
C155        C  0.62709335  0.11968129  0.50285476     1.02600
C156        C  0.61935830  0.87449033  0.49507841     1.01400
C157        C  0.50162154  0.87796186  0.62133882     1.01500
C158        C  0.51244438  0.12355487  0.62219640     1.04100
H159        H  0.56941585  0.93020383  0.56620505     0.31500
O160        O  0.54948388  0.95074935  0.54689393    -1.03800
H161        H  0.43596216  0.07203907  0.57011224     0.33500
O162        O  0.45471500  0.05139290  0.54977006    -1.06300
O163        O  0.42621736  0.36023336  0.00046388    -0.78900
O164        O  0.41577320  0.63215919  0.00161494    -0.80500
O165        O  0.36273953  0.49704266  0.07662819    -0.77500
O166        O  0.36488817  0.49651904  0.91961113    -0.75900
O167        O  0.42250926  0.49883154  0.86199355    -0.77700
O168        O  0.42024757  0.49698760  0.13498443    -0.78600
O169        O  0.36009788  0.57232488  0.00019870    -0.79900
O170        O  0.36689598  0.41613218  0.00020799    -0.80200
Eu171      Eu  0.40309931  0.49646851  0.99869687     2.39200
O172        O  0.44961207  0.54777836  0.95069153    -0.87700
O173        O  0.45267515  0.45034049  0.04817019    -0.91300
C174        C  0.38173097  0.37236770  0.00092150     1.03400
C175        C  0.37224647  0.61672894  0.00193619     1.03200
C176        C  0.37640996  0.49683366  0.12070997     1.03100
C177        C  0.37845956  0.49744185  0.87550576     1.01000
H178        H  0.42875079  0.56593772  0.06736701     0.30700
O179        O  0.44952275  0.54685324  0.04751738    -1.00100
H180        H  0.43398969  0.42916423  0.93020791     0.30800
O181        O  0.45306835  0.44979299  0.95025726    -1.02600
O182        O  0.57499258  0.63781514  0.00203766    -0.79900
O183        O  0.58218641  0.36605746  0.99972992    -0.79400
O184        O  0.49378564  0.58003922  0.13565313    -0.77800
O185        O  0.49886663  0.58056325  0.86494083    -0.81200
O186        O  0.50373430  0.42226073  0.86332211    -0.79000
O187        O  0.49965983  0.42274367  0.13670131    -0.77700
O188        O  0.63501882  0.50353138  0.07932553    -0.79200
O189        O  0.63636120  0.50582754  0.92157572    -0.81100
O190        O  0.57718605  0.50367370  0.13689939    -0.77900
O191        O  0.57879593  0.50418258  0.86378505    -0.80500
O192        O  0.49378096  0.63781394  0.07774758    -0.76300
O193        O  0.50079187  0.36508354  0.07865572    -0.76300
O194        O  0.50625604  0.36455777  0.92147211    -0.76000
O195        O  0.49708304  0.63838464  0.92238127    -0.79500
O196        O  0.63417961  0.58141554  0.00222422    -0.78900
O197        O  0.63839920  0.42533355  0.99674174    -0.77200
Eu198      Eu  0.49668271  0.59737765  0.99995158     2.39800
Eu199      Eu  0.50272414  0.40342872  0.99988010     2.39600
Eu200      Eu  0.49916542  0.50081683  0.09684942     2.38400
Eu201      Eu  0.50016946  0.50090013  0.90265457     2.39900
Eu202      Eu  0.59655252  0.50271286  0.00020201     2.39800
O203        O  0.54961069  0.45338571  0.95132015    -0.91600
O204        O  0.54676556  0.55046598  0.04862613    -0.90500
C205        C  0.61938013  0.62505360  0.00253028     1.03600
C206        C  0.62580469  0.38090704  0.99765079     1.02300
C207        C  0.49244954  0.62417120  0.12183172     1.01700
C208        C  0.49837367  0.62479516  0.87830573     1.03700
C209        C  0.50605054  0.37830753  0.87741861     1.02600
C210        C  0.49975166  0.37878719  0.12268743     1.01400
C211        C  0.62128380  0.50389720  0.12342663     1.01500
C212        C  0.62284825  0.50584108  0.87736176     1.04100
H213        H  0.56990084  0.43351352  0.06914127     0.31500
O214        O  0.54958417  0.45296796  0.04910260    -1.03800
H215        H  0.56649476  0.57107303  0.93218564     0.33500
O216        O  0.54697254  0.55040305  0.95175469    -1.06300
C217        C  0.50920558  0.18393467  0.25595892     0.13900
C218        C  0.49562184  0.23103387  0.26681612     0.00900
C219        C  0.48191598  0.24242725  0.31378083     0.15800
C220        C  0.48305922  0.20769956  0.34968094     0.25200
C221        C  0.49739249  0.16052805  0.33914690    -0.41100
C222        C  0.51005173  0.14901616  0.29166056     0.32300
C223        C  0.49684059  0.26865708  0.22960657     0.00900
F224        F  0.46679076  0.28724472  0.32478233    -0.13400
F225        F  0.52471183  0.10427285  0.27977453    -0.13900
C226        C  0.47206788  0.26269211  0.18628954     0.15800
C227        C  0.47339350  0.29837902  0.15135613     0.25300
C228        C  0.49852503  0.34117969  0.15963941    -0.41000
C229        C  0.52280869  0.34737034  0.20323578     0.32200
C230        C  0.52275894  0.31100469  0.23747365     0.13900
F231        F  0.44577558  0.22270775  0.17815225    -0.13400
F232        F  0.54777770  0.38803119  0.21220260    -0.13900
F233        F  0.44892834  0.29160867  0.10994610    -0.16200
F234        F  0.54895381  0.31668912  0.27796846    -0.14700
F235        F  0.52303024  0.17193976  0.21098070    -0.14700
F236        F  0.46941758  0.22030398  0.39454209    -0.16200
C237        C  0.46268437  0.68812746  0.23806589     0.13900
C238        C  0.48322213  0.73327953  0.23038753     0.00900
C239        C  0.50615078  0.74278657  0.18678918     0.15800
C240        C  0.50900797  0.70749520  0.15143661     0.25200
C241        C  0.48890273  0.66187123  0.15909314    -0.41100
C242        C  0.46537512  0.65273793  0.20274508     0.32300
C243        C  0.48315905  0.76976050  0.26869093     0.00900
F244        F  0.52731056  0.78582850  0.17918772    -0.13400
F245        F  0.44434303  0.60977494  0.21105659    -0.13900
C246        C  0.50988631  0.76215963  0.31048610     0.15800
C247        C  0.51266099  0.79765898  0.34554663     0.25300
C248        C  0.48867416  0.84149212  0.33943685    -0.41000
C249        C  0.46109317  0.84871382  0.29787856     0.32200
C250        C  0.45838739  0.81306327  0.26279641     0.13900
F251        F  0.53457074  0.72081109  0.31662532    -0.13400
F252        F  0.43599845  0.88982984  0.29165010    -0.13900
F253        F  0.54026117  0.78978372  0.38472190    -0.16200
F254        F  0.43131286  0.82057712  0.22319173    -0.14700
F255        F  0.43990570  0.67840585  0.27982224    -0.14700
F256        F  0.53308570  0.71748139  0.11047854    -0.16200
C257        C  0.50151369  0.74643753  0.81614484     0.13900
C258        C  0.50432500  0.73302689  0.76788639     0.00900
C259        C  0.50550571  0.68439198  0.75594528     0.15800
C260        C  0.50353034  0.64943194  0.79157529     0.25200
C261        C  0.50019729  0.66236716  0.84035073    -0.41100
C262        C  0.49949154  0.71160838  0.85209512     0.32300
C263        C  0.50438794  0.76967521  0.72975433     0.00900
F264        F  0.50890114  0.67069081  0.70948271    -0.13400
F265        F  0.49654767  0.72646312  0.89823569    -0.13900
C266        C  0.54179211  0.80301207  0.72635404     0.15800
C267        C  0.54073722  0.83855772  0.69111419     0.25300
C268        C  0.50285069  0.84046129  0.65819293    -0.41000
C269        C  0.46641704  0.80603056  0.66046074     0.32200
C270        C  0.46684241  0.77128309  0.69641573     0.13900
F271        F  0.57974798  0.80042051  0.75649090    -0.13400
F272        F  0.42982208  0.80682227  0.62858096    -0.13900
F273        F  0.57739593  0.87022227  0.68811610    -0.16200
F274        F  0.43017071  0.73963646  0.69928547    -0.14700
F275        F  0.49949737  0.79340424  0.82837694    -0.14700
F276        F  0.50503374  0.60289513  0.77784918    -0.16200
C277        C  0.48309690  0.30745030  0.76439828     0.13900
C278        C  0.51449503  0.26858817  0.77030867     0.00900
C279        C  0.54256118  0.26580310  0.81187709     0.15800
C280        C  0.53969629  0.30150463  0.84674364     0.25200
C281        C  0.50883548  0.34073063  0.84052826    -0.41100
C282        C  0.48046455  0.34338505  0.79911617     0.32300
C283        C  0.51761574  0.23089192  0.73320077     0.00900
F284        F  0.57346961  0.22893330  0.81825129    -0.13400
F285        F  0.44916103  0.38000403  0.79298127    -0.13900
C286        C  0.53109013  0.24252705  0.68624444     0.15800
C287        C  0.53094845  0.20757679  0.65034826     0.25300
C288        C  0.51674839  0.16020804  0.66072510    -0.41000
C289        C  0.50594627  0.14831158  0.70864869     0.32200
C290        C  0.50650518  0.18325191  0.74438093     0.13900
F291        F  0.54500024  0.28777871  0.67536419    -0.13400
F292        F  0.49351037  0.10305661  0.72110285    -0.13900
F293        F  0.54538525  0.22013351  0.60571256    -0.16200
F294        F  0.49482099  0.17069685  0.78982079    -0.14700
F295        F  0.45419764  0.30999807  0.72546236    -0.14700
F296        F  0.56814373  0.29845446  0.88598889    -0.16200
C297        C  0.69545288  0.23537998  0.48640278     0.13900
C298        C  0.73907672  0.22490611  0.50885185     0.00900
C299        C  0.74583383  0.17966919  0.52972049     0.15800
C300        C  0.70934007  0.14546814  0.52819115     0.25200
C301        C  0.66554218  0.15594769  0.50551808    -0.41100
C302        C  0.65891584  0.20149591  0.48507675     0.32300
C303        C  0.77700137  0.26171965  0.51043366     0.00900
F304        F  0.78738888  0.16895913  0.55239460    -0.13400
F305        F  0.61743466  0.21304741  0.46270669    -0.13900
C306        C  0.76756246  0.30666121  0.53078556     0.15800
C307        C  0.80160290  0.34313701  0.52874714     0.25300
C308        C  0.84610296  0.33519422  0.50669439    -0.41000
C309        C  0.85608309  0.28944331  0.48786341     0.32200
C310        C  0.82170488  0.25320943  0.48940842     0.13900
F311        F  0.72515921  0.31517876  0.55273863    -0.13400
F312        F  0.89860355  0.27999872  0.46662978    -0.13900
F313        F  0.79120340  0.38594129  0.54915229    -0.16200
F314        F  0.83147152  0.21034498  0.46878046    -0.14700
F315        F  0.68859376  0.27833547  0.46477518    -0.14700
F316        F  0.71639942  0.10266470  0.55010097    -0.16200
C317        C  0.73536904  0.80871137  0.47042043     0.13900
C318        C  0.72571149  0.76302628  0.48895886     0.00900
C319        C  0.68049889  0.75368748  0.50867144     0.15800
C320        C  0.64579883  0.78971116  0.51055843     0.25200
C321        C  0.65578659  0.83594273  0.49289043    -0.41100
C322        C  0.70100859  0.84488022  0.47265783     0.32300
C323        C  0.76369826  0.72605343  0.48977028     0.00900
F324        F  0.67040474  0.71003847  0.52744083    -0.13400
F325        F  0.71189103  0.88844891  0.45415063    -0.13900
C326        C  0.80704173  0.73537808  0.51332273     0.15800
C327        C  0.84303511  0.70082574  0.51487828     0.25300
C328        C  0.83649024  0.65602160  0.49292995    -0.41000
C329        C  0.79309212  0.64675824  0.46897398     0.32200
C330        C  0.75702607  0.68149956  0.46747360     0.13900
F331        F  0.81411103  0.77774843  0.53594142    -0.13400
F332        F  0.78593185  0.60455408  0.44602547    -0.13900
F333        F  0.88377910  0.71078855  0.53926085    -0.16200
F334        F  0.71593011  0.67199321  0.44347470    -0.14700
F335        F  0.77814500  0.81819250  0.44961756    -0.14700
F336        F  0.60298511  0.77959722  0.53102491    -0.16200
C337        C  0.19587389  0.26805268  0.52044705     0.13900
C338        C  0.23559891  0.27372974  0.49015851     0.00900
C339        C  0.23875827  0.31483159  0.46130463     0.15800
C340        C  0.20318269  0.34993076  0.46320037     0.25200
C341        C  0.16336279  0.34406420  0.49333907    -0.41100
C342        C  0.15994549  0.30271777  0.52176305     0.32300
C343        C  0.27373512  0.23690247  0.48907172     0.00900
F344        F  0.27582013  0.32048950  0.43050667    -0.13400
F345        F  0.12251137  0.29658888  0.55203426    -0.13900
C346        C  0.26233201  0.18886939  0.47999309     0.15800
C347        C  0.29770519  0.15366482  0.48116954     0.25300
C348        C  0.34555323  0.16560594  0.49186910    -0.41000
C349        C  0.35712084  0.21423409  0.49924463     0.32200
C350        C  0.32153752  0.24936835  0.49798942     0.13900
F351        F  0.21675959  0.17597983  0.46949730    -0.13400
F352        F  0.40264200  0.22804189  0.50872357    -0.13900
F353        F  0.28481214  0.10790437  0.47129980    -0.16200
F354        F  0.33364290  0.29552300  0.50700807    -0.14700
F355        F  0.19236305  0.22937728  0.54963985    -0.14700
F356        F  0.20701181  0.38900076  0.43456676    -0.16200
C357        C  0.25858920  0.81610672  0.52285349     0.13900
C358        C  0.26648832  0.77261786  0.49898608     0.00900
C359        C  0.31010912  0.76516564  0.47539011     0.15800
C360        C  0.34546976  0.80051163  0.47593509     0.25200
C361        C  0.33778190  0.84415929  0.50004930    -0.41100
C362        C  0.29381122  0.85162713  0.52330912     0.32300
C363        C  0.22920487  0.73502537  0.49889962     0.00900
F364        F  0.31808111  0.72394264  0.45099616    -0.13400
F365        F  0.28534846  0.89274369  0.54768758    -0.13900
C366        C  0.18437354  0.74391015  0.47819335     0.15800
C367        C  0.14870067  0.70882446  0.47898909     0.25300
C368        C  0.15750270  0.66378890  0.49998890    -0.41000
C369        C  0.20257867  0.65514169  0.52081610     0.32200
C370        C  0.23802543  0.69040395  0.52020627     0.13900
F371        F  0.17551405  0.78637958  0.45632946    -0.13400
F372        F  0.21200759  0.61299528  0.54306932    -0.13900
F373        F  0.10596597  0.71867983  0.45823238    -0.16200
F374        F  0.28074478  0.68133057  0.54136027    -0.14700
F375        F  0.21701553  0.82372743  0.54663449    -0.14700
F376        F  0.38678509  0.79241140  0.45180747    -0.16200
C377        C  0.80684869  0.53420019  0.26625009     0.13900
C378        C  0.76722461  0.50368642  0.27043117     0.00900
C379        C  0.76318282  0.47383281  0.31064029     0.15800
C380        C  0.79860373  0.47401286  0.34589252     0.25200
C381        C  0.83907439  0.50348010  0.34108313    -0.41100
C382        C  0.84260112  0.53405731  0.30123858     0.32300
C383        C  0.72990348  0.50339628  0.23300955     0.00900
F384        F  0.72534637  0.44381266  0.31526855    -0.13400
F385        F  0.87982449  0.56489766  0.29698262    -0.13900
C386        C  0.74097468  0.48906994  0.18622469     0.15800
C387        C  0.70583602  0.48921015  0.15066405     0.25300
C388        C  0.65876958  0.50400758  0.16119273    -0.41000
C389        C  0.64796602  0.51836511  0.20839793     0.32200
C390        C  0.68321297  0.51791927  0.24386032     0.13900
F391        F  0.78579431  0.47417589  0.17515797    -0.13400
F392        F  0.60356162  0.53382251  0.22028863    -0.13900
F393        F  0.71788489  0.47386136  0.10620214    -0.16200
F394        F  0.67204503  0.53274210  0.28872850    -0.14700
F395        F  0.81032053  0.56481121  0.22868474    -0.14700
F396        F  0.79392519  0.44444735  0.38416780    -0.16200
C397        C  0.26818535  0.53267046  0.19285760     0.13900
C398        C  0.26966791  0.49919346  0.23034522     0.00900
C399        C  0.30617619  0.46477531  0.23139832     0.15800
C400        C  0.34082644  0.46382548  0.19542789     0.25200
C401        C  0.33919062  0.49707529  0.15778011    -0.41100
C402        C  0.30253641  0.53140287  0.15657305     0.32300
C403        C  0.23237432  0.49938084  0.26767000     0.00900
F404        F  0.30761745  0.43152076  0.26677409    -0.13400
F405        F  0.30087890  0.56452837  0.12104623    -0.13900
C406        C  0.18499380  0.48857063  0.25566323     0.15800
C407        C  0.14931688  0.48900867  0.29061439     0.25300
C408        C  0.16044526  0.50012270  0.33862236    -0.41000
C409        C  0.20850030  0.51030495  0.35047878     0.32200
C410        C  0.24397578  0.50992281  0.31529076     0.13900
F411        F  0.17347345  0.47662698  0.21002378    -0.13400
F412        F  0.22141477  0.52137751  0.39596911    -0.13900
F413        F  0.10406868  0.47785697  0.27725843    -0.16200
F414        F  0.28967928  0.52055849  0.32760453    -0.14700
F415        F  0.23391759  0.56703663  0.19194255    -0.14700
F416        F  0.37526113  0.42963764  0.19657859    -0.16200
C417        C  0.18951567  0.52395773  0.73553704     0.13900
C418        C  0.23127597  0.49669802  0.72956129     0.00900
C419        C  0.23727738  0.46978656  0.68748116     0.15800
C420        C  0.20244336  0.47072567  0.65168011     0.25200
C421        C  0.16074742  0.49812164  0.65770806    -0.41100
C422        C  0.15436839  0.52428852  0.70013874     0.32300
C423        C  0.26879963  0.49678539  0.76688687     0.00900
F424        F  0.27656446  0.44195416  0.68141285    -0.13400
F425        F  0.11463315  0.55134445  0.70677450    -0.13900
C426        C  0.25766698  0.48489915  0.81439695     0.15800
C427        C  0.29316084  0.48486260  0.84952939     0.25300
C428        C  0.34076564  0.49694652  0.83794161    -0.41000
C429        C  0.35161082  0.50910992  0.79012928     0.32200
C430        C  0.31596761  0.50908950  0.75513743     0.13900
F431        F  0.21239829  0.47260124  0.82677073    -0.13400
F432        F  0.39645029  0.52220564  0.77709748    -0.13900
F433        F  0.28069158  0.47236567  0.89477590    -0.16200
F434        F  0.32732352  0.52239547  0.70981683    -0.14700
F435        F  0.18328021  0.55133477  0.77513566    -0.14700
F436        F  0.20881015  0.44370243  0.61182442    -0.16200
C437        C  0.68454886  0.49547327  0.75631834     0.13900
C438        C  0.73202320  0.50676225  0.76782622     0.00900
C439        C  0.74334002  0.51950152  0.81508501     0.15800
C440        C  0.70798189  0.52002742  0.85051357     0.25200
C441        C  0.66036308  0.50746044  0.83945079    -0.41100
C442        C  0.64912099  0.49582549  0.79156062     0.32300
C443        C  0.76971800  0.50500562  0.73056375     0.00900
F444        F  0.78867890  0.53217767  0.82680260    -0.13400
F445        F  0.60398562  0.48367510  0.77862255    -0.13900
C446        C  0.76562301  0.53278162  0.68881240     0.15800
C447        C  0.80102592  0.53095411  0.65360625     0.25300
C448        C  0.84129770  0.50147919  0.65960226    -0.41000
C449        C  0.84546949  0.47370337  0.70132916     0.32200
C450        C  0.80982029  0.47522381  0.73637249     0.13900
F451        F  0.72769467  0.56238229  0.68250530    -0.13400
F452        F  0.88333851  0.44398628  0.70748985    -0.13900
F453        F  0.79663784  0.55911242  0.61423657    -0.16200
F454        F  0.81384369  0.44667564  0.77547123    -0.14700
F455        F  0.67260951  0.48281507  0.71097712    -0.14700
F456        F  0.72049614  0.53354854  0.89544103    -0.16200
C457        C  0.73593520  0.69074236  0.02383718     0.13900
C458        C  0.72733860  0.73443378  0.00055099     0.00900
C459        C  0.68299219  0.74220522  0.97835940     0.15800
C460        C  0.64758842  0.70699286  0.97971596     0.25200
C461        C  0.65617740  0.66302829  0.00273172    -0.41100
C462        C  0.70088094  0.65518115  0.02461411     0.32300
C463        C  0.76480943  0.77170596  0.99911621     0.00900
F464        F  0.67444910  0.78346679  0.95419674    -0.13400
F465        F  0.71048716  0.61341209  0.04752438    -0.13900
C466        C  0.80967521  0.76157148  0.97916227     0.15800
C467        C  0.84549948  0.79632359  0.97865131     0.25300
C468        C  0.83691438  0.84231161  0.99746702    -0.41000
C469        C  0.79155496  0.85254217  0.01684130     0.32200
C470        C  0.75603322  0.81740808  0.01798254     0.13900
F471        F  0.81859367  0.71807879  0.95949134    -0.13400
F472        F  0.78185928  0.89608991  0.03600690    -0.13900
F473        F  0.88831791  0.78503329  0.95891867    -0.16200
F474        F  0.71336743  0.82763038  0.03867088    -0.14700
F475        F  0.77814372  0.68279316  0.04644946    -0.14700
F476        F  0.60554020  0.71529831  0.95696314    -0.16200
C477        C  0.82086451  0.24663163  0.01058520     0.13900
C478        C  0.77435246  0.23652585  0.99469115     0.00900
C479        C  0.76354211  0.19011905  0.97887737     0.15800
C480        C  0.79838386  0.15424824  0.97924131     0.25200
C481        C  0.84514250  0.16396404  0.99540084    -0.41100
C482        C  0.85601066  0.21090771  0.01068789     0.32300
C483        C  0.73668313  0.27393073  0.99549063     0.00900
F484        F  0.71910295  0.17960336  0.96253268    -0.13400
F485        F  0.90031066  0.22222902  0.02687471    -0.13900
C486        C  0.74155415  0.31609403  0.96845948     0.15800
C487        C  0.70559489  0.35100865  0.96909603     0.25300
C488        C  0.66403824  0.34423766  0.99669027    -0.41000
C489        C  0.65920707  0.30187532  0.02347821     0.32200
C490        C  0.69520459  0.26719014  0.02296339     0.13900
F491        F  0.78060398  0.32286744  0.94048082    -0.13400
F492        F  0.62011112  0.29453929  0.05125721    -0.13900
F493        F  0.71074020  0.39070949  0.94155382    -0.16200
F494        F  0.68991584  0.22719968  0.05001756    -0.14700
F495        F  0.83189228  0.29083437  0.02739362    -0.14700
F496        F  0.78628759  0.11015472  0.96293181    -0.16200
C497        C  0.23383715  0.80244131  0.98096606     0.13900
C498        C  0.22467105  0.76037398  0.00681013     0.00900
C499        C  0.18069087  0.75474372  0.03013591     0.15800
C500        C  0.14627265  0.79088865  0.02784209     0.25200
C501        C  0.15546066  0.83336929  0.00227512    -0.41100
C502        C  0.19959216  0.83872250  0.97875484     0.32300
C503        C  0.26102374  0.72225694  0.00869555     0.00900
F504        F  0.17149951  0.71458965  0.05588308    -0.13400
F505        F  0.20914499  0.87850778  0.95256828    -0.13900
C506        C  0.30550381  0.73103120  0.03006406     0.15800
C507        C  0.34141757  0.69643387  0.02849681     0.25300
C508        C  0.33347894  0.65248735  0.00521492    -0.41000
C509        C  0.28802961  0.64303786  0.98561256     0.32200
C510        C  0.25214105  0.67772986  0.98736514     0.13900
F511        F  0.31402458  0.77316092  0.05263861    -0.13400
F512        F  0.27868566  0.60090828  0.96333529    -0.13900
F513        F  0.38367269  0.70567681  0.05049754    -0.16200
F514        F  0.20917518  0.66849557  0.96680298    -0.14700
F515        F  0.27571314  0.80788777  0.95707296    -0.14700
F516        F  0.10451461  0.78486828  0.05178956    -0.16200
C517        C  0.24015302  0.18314812  0.03479366     0.13900
C518        C  0.23742217  0.22298474  0.00416462     0.00900
C519        C  0.19807559  0.22750794  0.97322001     0.15800
C520        C  0.16181592  0.19319870  0.97324027     0.25200
C521        C  0.16452874  0.15332385  0.00373053    -0.41100
C522        C  0.20410197  0.14841640  0.03440235     0.32300
C523        C  0.27487492  0.26049340  0.00489791     0.00900
F524        F  0.19514932  0.26490422  0.94235656    -0.13400
F525        F  0.20709101  0.11081223  0.06504666    -0.13900
C526        C  0.32264979  0.24933977  0.99446633     0.15800
C527        C  0.35741793  0.28539113  0.99317107     0.25300
C528        C  0.34509367  0.33354068  0.00258640    -0.41000
C529        C  0.29709245  0.34414100  0.01398485     0.32200
C530        C  0.26255470  0.30806262  0.01502101     0.13900
F531        F  0.33545807  0.20360349  0.98433030    -0.13400
F532        F  0.28329859  0.38937657  0.02492870    -0.13900
F533        F  0.40290105  0.27299436  0.98179297    -0.16200
F534        F  0.21687821  0.31954088  0.02663271    -0.14700
F535        F  0.27708739  0.17855470  0.06594119    -0.14700
F536        F  0.12462493  0.19826874  0.94244515    -0.16200
C537        C  0.69221726  0.01796952  0.73620571     0.13900
C538        C  0.73772937  0.99999012  0.72543979     0.00900
C539        C  0.74690800  0.98205946  0.67945814     0.15800
C540        C  0.71072926  0.98133951  0.64493070     0.25200
C541        C  0.66478934  0.99910694  0.65569829    -0.41100
C542        C  0.65611029  0.01769327  0.70175875     0.32300
C543        C  0.77506613  0.99921479  0.76281314     0.00900
F544        F  0.79059677  0.96414792  0.66835411    -0.13400
F545        F  0.61296289  0.03655923  0.71340208    -0.13900
C546        C  0.76785263  0.97278966  0.80494216     0.15800
C547        C  0.80198400  0.97344985  0.84141085     0.25300
C548        C  0.84420469  0.00022805  0.83610724    -0.41000
C549        C  0.85146612  0.02653482  0.79377733     0.32200
C550        C  0.81709724  0.02607989  0.75744252     0.13900
F551        F  0.72782010  0.94593327  0.81048251    -0.13400
F552        F  0.89110037  0.05398536  0.78828772    -0.13900
F553        F  0.79422606  0.94699784  0.88142036    -0.16200
F554        F  0.82417424  0.05295965  0.71760694    -0.14700
F555        F  0.68296429  0.03648519  0.78012618    -0.14700
F556        F  0.72044182  0.96207771  0.60141927    -0.16200
C557        C  0.19138756  0.98782230  0.75956275     0.13900
C558        C  0.23723722  0.00384481  0.77213028     0.00900
C559        C  0.24632873  0.01751479  0.81955910     0.15800
C560        C  0.20998340  0.01585901  0.85380404     0.25200
C561        C  0.16390611  0.99947282  0.84153199    -0.41100
C562        C  0.15511047  0.98543278  0.79385844     0.32300
C563        C  0.27549094  0.00587084  0.73564074     0.00900
F564        F  0.29026346  0.03345000  0.83254672    -0.13400
F565        F  0.11166109  0.96865093  0.78035053    -0.13900
C566        C  0.26954004  0.03365732  0.69415426     0.15800
C567        C  0.30417480  0.03313244  0.65816608     0.25300
C568        C  0.34571596  0.00527780  0.66336453    -0.41000
C569        C  0.35225037  0.97850892  0.70552549     0.32200
C570        C  0.31738221  0.97877309  0.74131455     0.13900
F571        F  0.23030943  0.06170523  0.68875010    -0.13400
F572        F  0.39154444  0.95061305  0.71132967    -0.13900
F573        F  0.29749456  0.06058517  0.61862611    -0.16200
F574        F  0.32384313  0.95136284  0.78089857    -0.14700
F575        F  0.18202148  0.97351409  0.71409765    -0.14700
F576        F  0.21970942  0.03170781  0.89866082    -0.16200
C577        C  0.25991545  0.97617170  0.31580953     0.13900
C578        C  0.26684273  0.99851488  0.27135630     0.00900
C579        C  0.30944982  0.02360933  0.26284349     0.15800
C580        C  0.34504104  0.02562862  0.29794551     0.25200
C581        C  0.33823662  0.00321614  0.34259874    -0.41100
C582        C  0.29508849  0.97877914  0.35126288     0.32300
C583        C  0.22946663  0.99603657  0.23395918     0.00900
F584        F  0.31619287  0.04685407  0.22072341    -0.13400
F585        F  0.28754116  0.95595964  0.39348389    -0.13900
C586        C  0.18460268  0.01695231  0.24177543     0.15800
C587        C  0.14956710  0.01572912  0.20614158     0.25300
C588        C  0.15873025  0.99367781  0.16175870    -0.41000
C589        C  0.20376633  0.97231988  0.15421376     0.32200
C590        C  0.23868778  0.97337552  0.19010370     0.13900
F591        F  0.17516078  0.03975686  0.28358325    -0.13400
F592        F  0.21383329  0.94967983  0.11245743    -0.13900
F593        F  0.10719553  0.03763122  0.21461117    -0.16200
F594        F  0.28139876  0.95171086  0.18234167    -0.14700
F595        F  0.21946358  0.95083459  0.32445372    -0.14700
F596        F  0.38574010  0.05032170  0.28853674    -0.16200
C597        C  0.69221297  0.96445311  0.26600057     0.13900
C598        C  0.72851678  0.99924848  0.26573135     0.00900
C599        C  0.72879444  0.03472345  0.30143214     0.15800
C600        C  0.69375338  0.03497398  0.33708550     0.25200
C601        C  0.65751789  0.00023168  0.33711711    -0.41100
C602        C  0.65675410  0.96522242  0.30119120     0.32300
C603        C  0.76609196  0.99847461  0.22834865     0.00900
F604        F  0.76253804  0.06960329  0.30126335    -0.13400
F605        F  0.62254794  0.93079175  0.30120752    -0.13900
C606        C  0.75374646  0.00032067  0.17970489     0.15800
C607        C  0.78916081  0.00043524  0.14440157     0.25300
C608        C  0.83803223  0.99811039  0.15697676    -0.41000
C609        C  0.85002346  0.99501406  0.20603178     0.32200
C610        C  0.81448551  0.99568655  0.24115372     0.13900
F611        F  0.70719171  0.00290161  0.16631034    -0.13400
F612        F  0.89613909  0.99079509  0.22047399    -0.13900
F613        F  0.77518713  0.00300073  0.09796265    -0.16200
F614        F  0.82740661  0.99265119  0.28788372    -0.14700
F615        F  0.69179344  0.92898795  0.23286478    -0.14700
F616        F  0.69446178  0.06982736  0.37091038    -0.16200
C617        C  0.02895699  0.19669156  0.76882416     0.13900
C618        C  0.99123269  0.23007727  0.76838640     0.00900
C619        C  0.95551077  0.22671143  0.80377468     0.15800
C620        C  0.95811020  0.19131465  0.83919955     0.25200
C621        C  0.99570331  0.15803225  0.83911787    -0.41100
C622        C  0.03046611  0.16034629  0.80311467     0.32300
C623        C  0.98967482  0.26807555  0.73102332     0.00900
F624        F  0.91761537  0.25702008  0.80357112    -0.13400
F625        F  0.06673086  0.12811573  0.80197269    -0.13900
C626        C  0.99578775  0.25621679  0.68252316     0.15800
C627        C  0.99849403  0.29184853  0.64759313     0.25300
C628        C  0.99375815  0.34053804  0.65996737    -0.41000
C629        C  0.98553183  0.35223889  0.70847139     0.32200
C630        C  0.98415440  0.31648561  0.74354518     0.13900
F631        F  0.99918510  0.20979630  0.66870616    -0.13400
F632        F  0.97913171  0.39830463  0.72244468    -0.13900
F633        F  0.00642488  0.27824540  0.60166441    -0.16200
F634        F  0.97904335  0.32952052  0.79004086    -0.14700
F635        F  0.06523462  0.20002059  0.73678539    -0.14700
F636        F  0.92306832  0.18847369  0.87266803    -0.16200
C637        C  0.97392180  0.76783799  0.80480763     0.13900
C638        C  0.00996320  0.76753871  0.76989790     0.00900
C639        C  0.04492364  0.80365532  0.77005743     0.15800
C640        C  0.04347219  0.83985138  0.80450691     0.25200
C641        C  0.00736734  0.83990915  0.83939304    -0.41100
C642        C  0.97287330  0.80356888  0.83948301     0.32300
C643        C  0.00988529  0.73030768  0.73256356     0.00900
F644        F  0.08069473  0.80344155  0.73725714    -0.13400
F645        F  0.93721138  0.80362043  0.87233644    -0.13900
C646        C  0.00605080  0.74323445  0.68428557     0.15800
C647        C  0.00302786  0.70818451  0.64892761     0.25300
C648        C  0.00461764  0.65914410  0.66111048    -0.41000
C649        C  0.00887541  0.64647333  0.70991545     0.32200
C650        C  0.01125438  0.68175978  0.74515186     0.13900
F651        F  0.00378359  0.79002408  0.67141760    -0.13400
F652        F  0.01061393  0.60001552  0.72400464    -0.13900
F653        F  0.99781228  0.72269463  0.60287263    -0.16200
F654        F  0.01511307  0.66849593  0.79174910    -0.14700
F655        F  0.93892304  0.73423356  0.80448580    -0.14700
F656        F  0.07797894  0.87396028  0.80467606    -0.16200
C657        C  0.97629597  0.75564669  0.18523783     0.13900
C658        C  0.98590798  0.76904762  0.23266524     0.00900
C659        C  0.99448624  0.81719275  0.24336146     0.15800
C660        C  0.99478913  0.85146457  0.20712115     0.25200
C661        C  0.98690648  0.83826051  0.15894422    -0.41100
C662        C  0.97668497  0.78984390  0.14862917     0.32300
C663        C  0.98879031  0.73262554  0.27081652     0.00900
F664        F  0.00446170  0.83086401  0.28888163    -0.13400
F665        F  0.96697626  0.77532916  0.10331363    -0.13900
C666        C  0.02286204  0.69586977  0.26784562     0.15800
C667        C  0.02535331  0.66084855  0.30335914     0.25300
C668        C  0.99452192  0.66270480  0.34289511    -0.41000
C669        C  0.96167223  0.70056728  0.34690557     0.32200
C670        C  0.95844404  0.73499243  0.31077672     0.13900
F671        F  0.05436149  0.69451650  0.23096344    -0.13400
F672        F  0.93171467  0.70336510  0.38501517    -0.13900
F673        F  0.05874108  0.62579510  0.29982511    -0.16200
F674        F  0.92510179  0.77009635  0.31428226    -0.14700
F675        F  0.96655552  0.70929219  0.17445905    -0.14700
F676        F  0.00425988  0.89743663  0.21950261    -0.16200
C677        C  0.02162923  0.18399702  0.24172511     0.13900
C678        C  0.00698229  0.23083738  0.23084371     0.00900
C679        C  0.99144617  0.24129527  0.18421236     0.15800
C680        C  0.99036948  0.20562728  0.14913496     0.25200
C681        C  0.00451916  0.15837718  0.15995856    -0.41100
C682        C  0.01997157  0.14805953  0.20690639     0.32300
C683        C  0.00646910  0.26839239  0.26843319     0.00900
F684        F  0.97599245  0.28592131  0.17287904    -0.13400
F685        F  0.03413443  0.10332531  0.21924508    -0.13900
C686        C  0.03107626  0.31176427  0.26181126     0.15800
C687        C  0.02965502  0.34740095  0.29693915     0.25300
C688        C  0.00365712  0.34037537  0.33941640    -0.41000
C689        C  0.97917693  0.29690803  0.34604707     0.32200
C690        C  0.98053332  0.26133012  0.31091574     0.13900
F691        F  0.05724229  0.31931389  0.22164162    -0.13400
F692        F  0.95262442  0.28937980  0.38590804    -0.13900
F693        F  0.05482428  0.38829222  0.28996757    -0.16200
F694        F  0.95539719  0.22037729  0.31786413    -0.14700
F695        F  0.03822483  0.17314669  0.28607568    -0.14700
F696        F  0.97410264  0.21729960  0.10489529    -0.16200
loop_ 
_geom_bond_atom_site_label_1 
_geom_bond_atom_site_label_2 
_geom_bond_distance 
_geom_bond_site_symmetry_2 
_ccdc_geom_bond_type 
O1           C12   1.292       .  A
O1          Eu37   2.462   1_445  S
O2           C13   1.290   1_455  A
O2          Eu36   2.452   1_545  S
O3           C14   1.292   1_556  A
O3           Eu9   2.458       .  S
O4           C15   1.291       .  A
O4           Eu9   2.455   1_655  S
O5           C15   1.294       .  A
O5          Eu39   2.470       .  S
O6           C14   1.290       .  A
O6          Eu38   2.453   1_545  S
O7           C13   1.291       .  A
O7           Eu9   2.463   1_655  S
O8           C12   1.292       .  A
O8           Eu9   2.461   1_554  S
Eu9          O19   2.353   1_456  S
Eu9          O11   2.351   1_556  S
Eu9          O10   2.347   1_455  S
Eu9          O17   2.356       .  S
O10         Eu39   2.347       .  S
O10         Eu36   2.349   1_645  S
O11         Eu37   2.346   1_445  S
O11         Eu38   2.350   1_545  S
C12         C681   1.491       .  S
C13         C621   1.472       .  S
C14         C521   1.475       .  S
C15         C481   1.492       .  S
H16          O17   0.966       .  S
O17         Eu38   2.361   1_546  S
O17         Eu36   2.352   1_545  S
H18          O19   0.966       .  S
O19         Eu37   2.354   1_545  S
O19         Eu39   2.354   1_554  S
O20          C43   1.289       .  A
O20         Eu36   2.447       .  S
O21          C44   1.290       .  A
O21         Eu37   2.452       .  S
O22          C45   1.292       .  A
O22         Eu38   2.460   1_556  S
O23          C46   1.291       .  A
O23         Eu39   2.455       .  S
O24          C47   1.292       .  A
O24         Eu39   2.460   1_564  S
O25          C48   1.291       .  A
O25         Eu38   2.458       .  S
O26          C49   1.290       .  A
O26         Eu40   2.452   1_454  S
O27          C50   1.290       .  A
O27         Eu40   2.452       .  S
O28          C49   1.291   1_556  A
O28         Eu38   2.460   1_556  S
O29          C50   1.291       .  A
O29         Eu39   2.458   1_565  S
O30          C45   1.291       .  A
O30         Eu36   2.457       .  S
O31          C48   1.293       .  A
O31         Eu37   2.467   1_455  S
O32          C47   1.291       .  A
O32         Eu37   2.457       .  S
O33          C46   1.291   1_565  A
O33         Eu36   2.458   1_655  S
O34          C43   1.290       .  A
O34         Eu40   2.450   1_455  S
O35          C44   1.291       .  A
O35         Eu40   2.459   1_554  S
Eu36         O54   2.358   1_455  S
Eu36         O42   2.350       .  S
Eu37         O41   2.346       .  S
Eu37         O52   2.352   1_655  S
Eu38         O52   2.355       .  S
Eu38         O42   2.346   1_554  S
Eu39         O41   2.346   1_546  S
Eu39         O54   2.360   1_545  S
Eu40         O41   2.345   1_556  S
Eu40         O52   2.353   1_656  S
Eu40         O54   2.353       .  S
Eu40         O42   2.350   1_655  S
C43         C641   1.465       .  S
C44         C661   1.490       .  S
C45         C561   1.487       .  S
C46         C548   1.477       .  S
C47         C608   1.494       .  S
C48         C588   1.487       .  S
C49         C501   1.478       .  S
C50         C468   1.483       .  S
H51          O52   0.966       .  S
H53          O54   0.966       .  S
O55          C66   1.293       .  A
O55         Eu91   2.467   1_455  S
O56          C67   1.289       .  A
O56         Eu90   2.445   1_655  S
O57          C68   1.291       .  A
O57         Eu63   2.457       .  S
O58          C69   1.288       .  A
O58         Eu63   2.440   1_655  S
O59          C69   1.293       .  A
O59         Eu93   2.469       .  S
O60          C68   1.290       .  A
O60         Eu92   2.454       .  S
O61          C67   1.292       .  A
O61         Eu63   2.463   1_655  S
O62          C66   1.291       .  A
O62         Eu63   2.454       .  S
Eu63         O73   2.358   1_455  S
Eu63         O65   2.346       .  S
Eu63         O64   2.343   1_455  S
Eu63         O71   2.347       .  S
O64         Eu93   2.342       .  S
O64         Eu90   2.344   1_655  S
O65         Eu91   2.348   1_455  S
O65         Eu92   2.344       .  S
C66         C688   1.482       .  S
C67         C628   1.492       .  S
C68         C341   1.476       .  S
C69         C308   1.483       .  S
H70          O71   0.966       .  S
O71         Eu92   2.357       .  S
O71         Eu90   2.356       .  S
H72          O73   0.966       .  S
O73         Eu91   2.360       .  S
O73         Eu93   2.353       .  S
O74          C97   1.289       .  A
O74         Eu90   2.445       .  S
O75          C98   1.293       .  A
O75         Eu91   2.465       .  S
O76          C99   1.290       .  A
O76         Eu92   2.449       .  S
O77         C100   1.290       .  A
O77         Eu93   2.452       .  S
O78         C101   1.290       .  A
O78         Eu93   2.450       .  S
O79         C102   1.290       .  A
O79         Eu92   2.450       .  S
O80         C103   1.292       .  A
O80         Eu94   2.463   1_455  S
O81         C104   1.293       .  A
O81         Eu94   2.466       .  S
O82         C103   1.292       .  A
O82         Eu92   2.460       .  S
O83         C104   1.290       .  A
O83         Eu93   2.451       .  S
O84          C99   1.290       .  A
O84         Eu90   2.452       .  S
O85         C102   1.292       .  A
O85         Eu91   2.462   1_455  S
O86         C101   1.292       .  A
O86         Eu91   2.464       .  S
O87         C100   1.291       .  A
O87         Eu90   2.459   1_655  S
O88          C97   1.290       .  A
O88         Eu94   2.454   1_455  S
O89          C98   1.288       .  A
O89         Eu94   2.436       .  S
Eu90        O108   2.354   1_455  S
Eu90         O96   2.349       .  S
Eu91         O95   2.345       .  S
Eu91        O106   2.355   1_655  S
Eu92        O106   2.352       .  S
Eu92         O96   2.352       .  S
Eu93         O95   2.346       .  S
Eu93        O108   2.360       .  S
Eu94         O95   2.346       .  S
Eu94        O106   2.357   1_655  S
Eu94        O108   2.349       .  S
Eu94         O96   2.347   1_655  S
C97         C648   1.488       .  S
C98         C668   1.469       .  S
C99         C421   1.472       .  S
C100        C448   1.476       .  S
C101        C381   1.477       .  S
C102        C408   1.490       .  S
C103        C368   1.486       .  S
C104        C328   1.483       .  S
H105        O106   0.966       .  S
H107        O108   0.966       .  S
O109        C120   1.289   1_545  A
O109       Eu145   2.449   1_545  S
O110        C121   1.292       .  A
O110       Eu144   2.462       .  S
O111        C122   1.291       .  A
O111       Eu117   2.458   1_565  S
O112        C123   1.289       .  A
O112       Eu117   2.444       .  S
O113        C123   1.291       .  A
O113       Eu147   2.459       .  S
O114        C122   1.291       .  A
O114       Eu146   2.456       .  S
O115        C121   1.291       .  A
O115       Eu117   2.455       .  S
O116        C120   1.291       .  A
O116       Eu117   2.460   1_565  S
Eu117       O127   2.358       .  S
Eu117       O119   2.350   1_545  S
Eu117       O118   2.347       .  S
Eu117       O125   2.348   1_545  S
O118       Eu147   2.348       .  S
O118       Eu144   2.346       .  S
O119       Eu145   2.353       .  S
O119       Eu146   2.353       .  S
C120        C601   1.470   1_565  S
C121        C581   1.482       .  S
C122        C248   1.480       .  S
C123        C221   1.483       .  S
H124        O125   0.965       .  S
O125       Eu146   2.345       .  S
O125       Eu144   2.348   1_565  S
H126        O127   0.966       .  S
O127       Eu145   2.357   1_545  S
O127       Eu147   2.356       .  S
O128        C151   1.291       .  A
O128       Eu144   2.456       .  S
O129        C152   1.290       .  A
O129       Eu145   2.451       .  S
O130        C153   1.290       .  A
O130       Eu146   2.449       .  S
O131        C154   1.291       .  A
O131       Eu147   2.454       .  S
O132        C155   1.291       .  A
O132       Eu147   2.455       .  S
O133        C156   1.290       .  A
O133       Eu146   2.451       .  S
O134        C157   1.291       .  A
O134       Eu148   2.460   1_565  S
O135        C158   1.291       .  A
O135       Eu148   2.458       .  S
O136        C157   1.290       .  A
O136       Eu146   2.454       .  S
O137        C158   1.293       .  A
O137       Eu147   2.466       .  S
O138        C153   1.293       .  A
O138       Eu144   2.470   1_565  S
O139        C156   1.292       .  A
O139       Eu145   2.461       .  S
O140        C155   1.290       .  A
O140       Eu145   2.452   1_545  S
O141        C154   1.291       .  A
O141       Eu144   2.457       .  S
O142        C151   1.291       .  A
O142       Eu148   2.453       .  S
O143        C152   1.291       .  A
O143       Eu148   2.453   1_565  S
Eu144       O162   2.361       .  S
Eu144       O150   2.351   1_545  S
Eu145       O149   2.342   1_565  S
Eu145       O160   2.348       .  S
Eu146       O160   2.351       .  S
Eu146       O150   2.352       .  S
Eu147       O149   2.344       .  S
Eu147       O162   2.358       .  S
Eu148       O149   2.341       .  S
Eu148       O160   2.350   1_545  S
Eu148       O162   2.361       .  S
Eu148       O150   2.351   1_545  S
C151        C568   1.477       .  S
C152        C541   1.483       .  S
C153        C361   1.484       .  S
C154        C348   1.491       .  S
C155        C301   1.481       .  S
C156        C321   1.485       .  S
C157        C268   1.470       .  S
C158        C288   1.492       .  S
H159        O160   0.966       .  S
H161        O162   0.966       .  S
O163        C174   1.291       .  A
O163       Eu199   2.459   1_554  S
O164        C175   1.293       .  A
O164       Eu198   2.466   1_554  S
O165        C176   1.290       .  A
O165       Eu171   2.455   1_554  S
O166        C177   1.291       .  A
O166       Eu171   2.456       .  S
O167        C177   1.291       .  A
O167       Eu201   2.454       .  S
O168        C176   1.291       .  A
O168       Eu200   2.456       .  S
O169        C175   1.288       .  A
O169       Eu171   2.439   1_554  S
O170        C174   1.292       .  A
O170       Eu171   2.465   1_554  S
Eu171       O181   2.345       .  S
Eu171       O173   2.345   1_556  S
Eu171       O172   2.357       .  S
Eu171       O179   2.353   1_556  S
O172       Eu201   2.351       .  S
O172       Eu198   2.358       .  S
O173       Eu199   2.347   1_554  S
O173       Eu200   2.354       .  S
C174        C528   1.494       .  S
C175        C508   1.479       .  S
C176        C401   1.470       .  S
C177        C428   1.489       .  S
H178        O179   0.965       .  S
O179       Eu200   2.342       .  S
O179       Eu198   2.347   1_554  S
H180        O181   0.966       .  S
O181       Eu199   2.352       .  S
O181       Eu201   2.356       .  S
O182        C205   1.293       .  A
O182       Eu198   2.468   1_554  S
O183        C206   1.291       .  A
O183       Eu199   2.458       .  S
O184        C207   1.293       .  A
O184       Eu200   2.472       .  S
O185        C208   1.292       .  A
O185       Eu201   2.464       .  S
O186        C209   1.292       .  A
O186       Eu201   2.461       .  S
O187        C210   1.290       .  A
O187       Eu200   2.450       .  S
O188        C211   1.292       .  A
O188       Eu202   2.460       .  S
O189        C212   1.293       .  A
O189       Eu202   2.467   1_556  S
O190        C211   1.291       .  A
O190       Eu200   2.456       .  S
O191        C212   1.291       .  A
O191       Eu201   2.457       .  S
O192        C207   1.291       .  A
O192       Eu198   2.453   1_554  S
O193        C210   1.290       .  A
O193       Eu199   2.450   1_554  S
O194        C209   1.290       .  A
O194       Eu199   2.449       .  S
O195        C208   1.290       .  A
O195       Eu198   2.453       .  S
O196        C205   1.289       .  A
O196       Eu202   2.441       .  S
O197        C206   1.292       .  A
O197       Eu202   2.462   1_556  S
Eu198       O216   2.351       .  S
Eu198       O204   2.353   1_556  S
Eu199       O203   2.349       .  S
Eu199       O214   2.353   1_556  S
Eu200       O214   2.360       .  S
Eu200       O204   2.350       .  S
Eu201       O203   2.351       .  S
Eu201       O216   2.349       .  S
Eu202       O203   2.345   1_554  S
Eu202       O214   2.352       .  S
Eu202       O216   2.353   1_554  S
Eu202       O204   2.358       .  S
C205        C461   1.480       .  S
C206        C488   1.482       .  S
C207        C241   1.486       .  S
C208        C261   1.494       .  S
C209        C281   1.475       .  S
C210        C228   1.474       .  S
C211        C388   1.489       .  S
C212        C441   1.493       .  S
H213        O214   0.966       .  S
H215        O216   0.965       .  S
C217        C218   1.404       .  A
C217        C222   1.396       .  A
C217        F235   1.358       .  S
C218        C223   1.479       .  S
C218        C219   1.405       .  A
C219        C220   1.396       .  A
C219        F224   1.358       .  S
C220        C221   1.410       .  A
C220        F236   1.358       .  S
C221        C222   1.412       .  A
C222        F225   1.358       .  S
C223        C226   1.405       .  A
C223        C230   1.406       .  A
C226        C227   1.396       .  A
C226        F231   1.358       .  S
C227        C228   1.408       .  A
C227        F233   1.358       .  S
C228        C229   1.406       .  A
C229        C230   1.396       .  A
C229        F232   1.358       .  S
C230        F234   1.358       .  S
C237        C238   1.404       .  A
C237        C242   1.400       .  A
C237        F255   1.358       .  S
C238        C243   1.479       .  S
C238        C239   1.403       .  A
C239        C240   1.399       .  A
C239        F244   1.358       .  S
C240        C241   1.411       .  A
C240        F256   1.358       .  S
C241        C242   1.410       .  A
C242        F245   1.358       .  S
C243        C246   1.403       .  A
C243        C250   1.405       .  A
C246        C247   1.398       .  A
C246        F251   1.358       .  S
C247        C248   1.408       .  A
C247        F253   1.358       .  S
C248        C249   1.409       .  A
C249        C250   1.401       .  A
C249        F252   1.358       .  S
C250        F254   1.358       .  S
C257        C258   1.403       .  A
C257        C262   1.400       .  A
C257        F275   1.358       .  S
C258        C263   1.478       .  S
C258        C259   1.401       .  A
C259        C260   1.396       .  A
C259        F264   1.358       .  S
C260        C261   1.414       .  A
C260        F276   1.357       .  S
C261        C262   1.416       .  A
C262        F265   1.358       .  S
C263        C266   1.405       .  A
C263        C270   1.405       .  A
C266        C267   1.399       .  A
C266        F271   1.358       .  S
C267        C268   1.405       .  A
C267        F273   1.358       .  S
C268        C269   1.404       .  A
C269        C270   1.398       .  A
C269        F272   1.358       .  S
C270        F274   1.358       .  S
C277        C278   1.407       .  A
C277        C282   1.399       .  A
C277        F295   1.358       .  S
C278        C283   1.482       .  S
C278        C279   1.405       .  A
C279        C280   1.398       .  A
C279        F284   1.358       .  S
C280        C281   1.407       .  A
C280        F296   1.358       .  S
C281        C282   1.406       .  A
C282        F285   1.358       .  S
C283        C286   1.404       .  A
C283        C290   1.403       .  A
C286        C287   1.401       .  A
C286        F291   1.358       .  S
C287        C288   1.413       .  A
C287        F293   1.358       .  S
C288        C289   1.413       .  A
C289        C290   1.398       .  A
C289        F292   1.358       .  S
C290        F294   1.358       .  S
C297        C298   1.404       .  A
C297        C302   1.395       .  A
C297        F315   1.358       .  S
C298        C303   1.480       .  S
C298        C299   1.405       .  A
C299        C300   1.400       .  A
C299        F304   1.358       .  S
C300        C301   1.411       .  A
C300        F316   1.359       .  S
C301        C302   1.408       .  A
C302        F305   1.358       .  S
C303        C306   1.405       .  A
C303        C310   1.403       .  A
C306        C307   1.397       .  A
C306        F311   1.358       .  S
C307        C308   1.408       .  A
C307        F313   1.358       .  S
C308        C309   1.412       .  A
C309        C310   1.398       .  A
C309        F312   1.357       .  S
C310        F314   1.358       .  S
C317        C318   1.405       .  A
C317        C322   1.397       .  A
C317        F335   1.358       .  S
C318        C323   1.483       .  S
C318        C319   1.405       .  A
C319        C320   1.400       .  A
C319        F324   1.358       .  S
C320        C321   1.412       .  A
C320        F336   1.358       .  S
C321        C322   1.409       .  A
C322        F325   1.358       .  S
C323        C326   1.405       .  A
C323        C330   1.406       .  A
C326        C327   1.397       .  A
C326        F331   1.358       .  S
C327        C328   1.407       .  A
C327        F333   1.358       .  S
C328        C329   1.411       .  A
C329        C330   1.402       .  A
C329        F332   1.358       .  S
C330        F334   1.358       .  S
C337        C338   1.407       .  A
C337        C342   1.397       .  A
C337        F355   1.358       .  S
C338        C343   1.484       .  S
C338        C339   1.406       .  A
C339        C340   1.399       .  A
C339        F344   1.358       .  S
C340        C341   1.407       .  A
C340        F356   1.358       .  S
C341        C342   1.406       .  A
C342        F345   1.358       .  S
C343        C346   1.404       .  A
C343        C350   1.405       .  A
C346        C347   1.397       .  A
C346        F351   1.358       .  S
C347        C348   1.413       .  A
C347        F353   1.358       .  S
C348        C349   1.413       .  A
C349        C350   1.400       .  A
C349        F352   1.358       .  S
C350        F354   1.358       .  S
C357        C358   1.405       .  A
C357        C362   1.400       .  A
C357        F375   1.358       .  S
C358        C363   1.482       .  S
C358        C359   1.404       .  A
C359        C360   1.399       .  A
C359        F364   1.358       .  S
C360        C361   1.411       .  A
C360        F376   1.358       .  S
C361        C362   1.408       .  A
C362        F365   1.358       .  S
C363        C366   1.404       .  A
C363        C370   1.404       .  A
C366        C367   1.400       .  A
C366        F371   1.358       .  S
C367        C368   1.411       .  A
C367        F373   1.358       .  S
C368        C369   1.411       .  A
C369        C370   1.399       .  A
C369        F372   1.358       .  S
C370        F374   1.358       .  S
C377        C378   1.405       .  A
C377        C382   1.399       .  A
C377        F395   1.358       .  S
C378        C383   1.478       .  S
C378        C379   1.404       .  A
C379        C380   1.398       .  A
C379        F384   1.358       .  S
C380        C381   1.408       .  A
C380        F396   1.358       .  S
C381        C382   1.407       .  A
C382        F385   1.358       .  S
C383        C386   1.403       .  A
C383        C390   1.402       .  A
C386        C387   1.398       .  A
C386        F391   1.358       .  S
C387        C388   1.412       .  A
C387        F393   1.358       .  S
C388        C389   1.413       .  A
C389        C390   1.399       .  A
C389        F392   1.358       .  S
C390        F394   1.358       .  S
C397        C398   1.405       .  A
C397        C402   1.399       .  A
C397        F415   1.358       .  S
C398        C403   1.477       .  S
C398        C399   1.404       .  A
C399        C400   1.398       .  A
C399        F404   1.358       .  S
C400        C401   1.405       .  A
C400        F416   1.358       .  S
C401        C402   1.405       .  A
C402        F405   1.358       .  S
C403        C406   1.401       .  A
C403        C410   1.402       .  A
C406        C407   1.398       .  A
C406        F411   1.358       .  S
C407        C408   1.413       .  A
C407        F413   1.357       .  S
C408        C409   1.415       .  A
C409        C410   1.398       .  A
C409        F412   1.358       .  S
C410        F414   1.358       .  S
C417        C418   1.406       .  A
C417        C422   1.395       .  A
C417        F435   1.358       .  S
C418        C423   1.481       .  S
C418        C419   1.407       .  A
C419        C420   1.398       .  A
C419        F424   1.358       .  S
C420        C421   1.407       .  A
C420        F436   1.358       .  S
C421        C422   1.406       .  A
C422        F425   1.358       .  S
C423        C426   1.404       .  A
C423        C430   1.404       .  A
C426        C427   1.397       .  A
C426        F431   1.358       .  S
C427        C428   1.413       .  A
C427        F433   1.358       .  S
C428        C429   1.412       .  A
C429        C430   1.397       .  A
C429        F432   1.358       .  S
C430        F434   1.358       .  S
C437        C438   1.404       .  A
C437        C442   1.398       .  A
C437        F455   1.358       .  S
C438        C443   1.484       .  S
C438        C439   1.405       .  A
C439        C440   1.401       .  A
C439        F444   1.358       .  S
C440        C441   1.413       .  A
C440        F456   1.358       .  S
C441        C442   1.413       .  A
C442        F445   1.358       .  S
C443        C446   1.406       .  A
C443        C450   1.407       .  A
C446        C447   1.398       .  A
C446        F451   1.358       .  S
C447        C448   1.407       .  A
C447        F453   1.358       .  S
C448        C449   1.406       .  A
C449        C450   1.400       .  A
C449        F452   1.358       .  S
C450        F454   1.358       .  S
C457        C458   1.405       .  A
C457        C462   1.397       .  A
C457        F475   1.358       .  S
C458        C463   1.479   1_554  S
C458        C459   1.405   1_554  A
C459        C460   1.398       .  A
C459        F464   1.358       .  S
C460        C461   1.408   1_556  A
C460        F476   1.358       .  S
C461        C462   1.410       .  A
C462        F465   1.358       .  S
C463        C466   1.404       .  A
C463        C470   1.404   1_556  A
C466        C467   1.397       .  A
C466        F471   1.358       .  S
C467        C468   1.410       .  A
C467        F473   1.357       .  S
C468        C469   1.410   1_556  A
C469        C470   1.398       .  A
C469        F472   1.358       .  S
C470        F474   1.358       .  S
C477        C478   1.405   1_554  A
C477        C482   1.402       .  A
C477        F495   1.358       .  S
C478        C483   1.485       .  S
C478        C479   1.404       .  A
C479        C480   1.399       .  A
C479        F484   1.358       .  S
C480        C481   1.411       .  A
C480        F496   1.358       .  S
C481        C482   1.414   1_556  A
C482        F485   1.358       .  S
C483        C486   1.407       .  A
C483        C490   1.405   1_556  A
C486        C487   1.402       .  A
C486        F491   1.358       .  S
C487        C488   1.409       .  A
C487        F493   1.358       .  S
C488        C489   1.408   1_556  A
C489        C490   1.399       .  A
C489        F492   1.358       .  S
C490        F494   1.358       .  S
C497        C498   1.404   1_556  A
C497        C502   1.397       .  A
C497        F515   1.358       .  S
C498        C503   1.475       .  S
C498        C499   1.403       .  A
C499        C500   1.398       .  A
C499        F504   1.358       .  S
C500        C501   1.410       .  A
C500        F516   1.358       .  S
C501        C502   1.408   1_554  A
C502        F505   1.358       .  S
C503        C506   1.403       .  A
C503        C510   1.403   1_554  A
C506        C507   1.396       .  A
C506        F511   1.358       .  S
C507        C508   1.409       .  A
C507        F513   1.358       .  S
C508        C509   1.410   1_554  A
C509        C510   1.397       .  A
C509        F512   1.358       .  S
C510        F514   1.358       .  S
C517        C518   1.407       .  A
C517        C522   1.401       .  A
C517        F535   1.358       .  S
C518        C523   1.483       .  S
C518        C519   1.406   1_554  A
C519        C520   1.397       .  A
C519        F524   1.358       .  S
C520        C521   1.405   1_556  A
C520        F536   1.358       .  S
C521        C522   1.407       .  A
C522        F525   1.358       .  S
C523        C526   1.404   1_554  A
C523        C530   1.403       .  A
C526        C527   1.402       .  A
C526        F531   1.358       .  S
C527        C528   1.415   1_556  A
C527        F533   1.358       .  S
C528        C529   1.413       .  A
C529        C530   1.398       .  A
C529        F532   1.358       .  S
C530        F534   1.358       .  S
C537        C538   1.403   1_545  A
C537        C542   1.396       .  A
C537        F555   1.358       .  S
C538        C543   1.478       .  S
C538        C539   1.404       .  A
C539        C540   1.399       .  A
C539        F544   1.358       .  S
C540        C541   1.412       .  A
C540        F556   1.358       .  S
C541        C542   1.410   1_565  A
C542        F545   1.358       .  S
C543        C546   1.405       .  A
C543        C550   1.404   1_565  A
C546        C547   1.397       .  A
C546        F551   1.358       .  S
C547        C548   1.407   1_565  A
C547        F553   1.358       .  S
C548        C549   1.408       .  A
C549        C550   1.399       .  A
C549        F552   1.358       .  S
C550        F554   1.358       .  S
C557        C558   1.404   1_565  A
C557        C562   1.399       .  A
C557        F575   1.358       .  S
C558        C563   1.481       .  S
C558        C559   1.403       .  A
C559        C560   1.398       .  A
C559        F564   1.358       .  S
C560        C561   1.411   1_545  A
C560        F576   1.358       .  S
C561        C562   1.411       .  A
C562        F565   1.358       .  S
C563        C566   1.405       .  A
C563        C570   1.405   1_545  A
C566        C567   1.398       .  A
C566        F571   1.358       .  S
C567        C568   1.407       .  A
C567        F573   1.358       .  S
C568        C569   1.408   1_545  A
C569        C570   1.398       .  A
C569        F572   1.358       .  S
C570        F574   1.358       .  S
C577        C578   1.404       .  A
C577        C582   1.399       .  A
C577        F595   1.358       .  S
C578        C583   1.481       .  S
C578        C579   1.404   1_565  A
C579        C580   1.400       .  A
C579        F584   1.358       .  S
C580        C581   1.410       .  A
C580        F596   1.358       .  S
C581        C582   1.409   1_545  A
C582        F585   1.358       .  S
C583        C586   1.403   1_565  A
C583        C590   1.405       .  A
C586        C587   1.398       .  A
C586        F591   1.358       .  S
C587        C588   1.410   1_545  A
C587        F593   1.356       .  S
C588        C589   1.411       .  A
C589        C590   1.401       .  A
C589        F592   1.358       .  S
C590        F594   1.358       .  S
C597        C598   1.407       .  A
C597        C602   1.398       .  A
C597        F615   1.358       .  S
C598        C603   1.483       .  S
C598        C599   1.408   1_565  A
C599        C600   1.399       .  A
C599        F604   1.358       .  S
C600        C601   1.405       .  A
C600        F616   1.358       .  S
C601        C602   1.403   1_545  A
C602        F605   1.358       .  S
C603        C606   1.404   1_565  A
C603        C610   1.404       .  A
C606        C607   1.399       .  A
C606        F611   1.358       .  S
C607        C608   1.414   1_545  A
C607        F613   1.358       .  S
C608        C609   1.414       .  A
C609        C610   1.398       .  A
C609        F612   1.358       .  S
C610        F614   1.358       .  S
C617        C618   1.410   1_455  A
C617        C622   1.397       .  A
C617        F635   1.358       .  S
C618        C623   1.490       .  S
C618        C619   1.410       .  A
C619        C620   1.402       .  A
C619        F624   1.358       .  S
C620        C621   1.405       .  A
C620        F636   1.358       .  S
C621        C622   1.402   1_655  A
C622        F625   1.358       .  S
C623        C626   1.407       .  A
C623        C630   1.407       .  A
C626        C627   1.397       .  A
C626        F631   1.358       .  S
C627        C628   1.411       .  A
C627        F633   1.358   1_655  S
C628        C629   1.414       .  A
C629        C630   1.400       .  A
C629        F632   1.358       .  S
C630        F634   1.358       .  S
C637        C638   1.404   1_655  A
C637        C642   1.393       .  A
C637        F655   1.358       .  S
C638        C643   1.475       .  S
C638        C639   1.407       .  A
C639        C640   1.398       .  A
C639        F644   1.358       .  S
C640        C641   1.405       .  A
C640        F656   1.358       .  S
C641        C642   1.402   1_455  A
C642        F645   1.357       .  S
C643        C646   1.401       .  A
C643        C650   1.403       .  A
C646        C647   1.395       .  A
C646        F651   1.358       .  S
C647        C648   1.413       .  A
C647        F653   1.358   1_455  S
C648        C649   1.414       .  A
C649        C650   1.396       .  A
C649        F652   1.358       .  S
C650        F654   1.359       .  S
C657        C658   1.404       .  A
C657        C662   1.400       .  A
C657        F675   1.359       .  S
C658        C663   1.476       .  S
C658        C659   1.400       .  A
C659        C660   1.394       .  A
C659        F664   1.358   1_655  S
C660        C661   1.414       .  A
C660        F676   1.358   1_655  S
C661        C662   1.414       .  A
C662        F665   1.358       .  S
C663        C666   1.405   1_655  A
C663        C670   1.405       .  A
C666        C667   1.396       .  A
C666        F671   1.358       .  S
C667        C668   1.404   1_455  A
C667        F673   1.358       .  S
C668        C669   1.407       .  A
C669        C670   1.398       .  A
C669        F672   1.359       .  S
C670        F674   1.358       .  S
C677        C678   1.405       .  A
C677        C682   1.400       .  A
C677        F695   1.358       .  S
C678        C683   1.486       .  S
C678        C679   1.405   1_455  A
C679        C680   1.399       .  A
C679        F684   1.358       .  S
C680        C681   1.412   1_655  A
C680        F696   1.357       .  S
C681        C682   1.411       .  A
C682        F685   1.356       .  S
C683        C686   1.407       .  A
C683        C690   1.406   1_455  A
C686        C687   1.400       .  A
C686        F691   1.358       .  S
C687        C688   1.407       .  A
C687        F693   1.357       .  S
C688        C689   1.408   1_455  A
C689        C690   1.399       .  A
C689        F692   1.356       .  S
C690        F694   1.358       .  S
