geometry optimzed in LAMMPS
_audit_creation_date              2020-11-30 
_audit_creation_method            'lammps2cif' 
_symmetry_space_group_name_H-M    'P1' 
_symmetry_Int_Tables_number       1 
_symmetry_cell_setting            triclinic 
loop_ 
_symmetry_equiv_pos_as_xyz 
  x,y,z 
_cell_length_a                    36.67948038 
_cell_length_b                    27.25951094275544 
_cell_length_c                    23.526111072889517 
_cell_angle_alpha                 89.60310649562527 
_cell_angle_beta                  90.03035790241707 
_cell_angle_gamma                 89.6209372576087 
loop_ 
_atom_site_label 
_atom_site_type_symbol 
_atom_site_fract_x 
_atom_site_fract_y 
_atom_site_fract_z 
_atom_site_charge 
C1          C  0.95187679  0.38981066  0.22110875     0.88900
C2          C  0.97977214  0.34782352  0.21707163    -0.51300
C3          C  0.00423694  0.35345045  0.17336152     0.11800
C4          C  0.99815823  0.40101312  0.13859344     0.22800
C5          C  0.97452374  0.43655244  0.22593880    -0.52100
C6          C  0.99920896  0.44269096  0.18317056     0.11900
C7          C  0.93394723  0.39247147  0.16247485    -0.51600
C8          C  0.95815311  0.39820371  0.11900513     0.12500
H9          H  0.97922578  0.31644105  0.24558151     0.17000
H10         H  0.01722987  0.40485314  0.10239200     0.02800
H11         H  0.97164728  0.46226205  0.26076526     0.17300
H12         H  0.90470500  0.38991997  0.15584992     0.17100
C13         C  0.55427235  0.12916083  0.71752210     0.88900
C14         C  0.52775423  0.17266082  0.71195310    -0.51300
C15         C  0.50287482  0.16769068  0.66872115     0.11800
C16         C  0.50733522  0.11918693  0.63575233     0.22800
C17         C  0.53012844  0.08395563  0.72439831    -0.52100
C18         C  0.50530262  0.07823225  0.68182467     0.11900
C19         C  0.57184468  0.12424115  0.65889151    -0.51600
C20         C  0.54730531  0.11902640  0.61577824     0.12900
H21         H  0.52943111  0.20448199  0.73919103     0.17000
H22         H  0.48790206  0.11615454  0.59998059     0.02800
H23         H  0.53253918  0.05850834  0.75998569     0.17300
H24         H  0.60114479  0.12441562  0.65213085     0.17100
O25         O  0.60730427  0.17533227  0.44777047    -0.76100
C26         C  0.70430409  0.22768466  0.36978740     0.85000
O27         O  0.57803502  0.19401093  0.24548910    -0.77200
O28         O  0.70060410  0.12711059  0.22248140    -0.78700
O29         O  0.66739318  0.02858836  0.38800588    -0.78500
O30         O  0.60039320  0.09432018  0.45137219    -0.77100
Zn31       Zn  0.62598100  0.19121783  0.36923561     1.55700
O32         O  0.71399066  0.06707881  0.34596092    -0.78500
Cd33       Cd  0.62246288  0.07384857  0.37330054     1.59700
Cd34       Cd  0.61005104  0.13220731  0.25349789     1.59600
O35         O  0.58311753  0.03443905  0.33075534    -0.78500
O36         O  0.63751441  0.13226001  0.32706675    -1.89000
Cd37       Cd  0.69110960  0.12964420  0.30988482     1.59900
O38         O  0.57517918  0.07349610  0.24806598    -0.78500
O39         O  0.71716898  0.19064673  0.34355377    -0.77100
C40         C  0.57172563  0.22868117  0.28002252     0.85400
C41         C  0.59777876  0.13654527  0.47404732     0.85100
O42         O  0.67050189  0.23250795  0.38048033    -0.76100
C43         C  0.70102291  0.03144462  0.37467287     0.85900
O44         O  0.58776902  0.23126385  0.32802503    -0.76200
C45         C  0.56754470  0.03890541  0.28247547     0.86000
C46         C  0.67915183  0.12686124  0.17980845     0.86400
O47         O  0.64467417  0.12887977  0.18487621    -0.78600
C48         C  0.71112320  0.12198847  0.01309709     0.88900
C49         C  0.73325139  0.07719201  0.99373892    -0.51300
C50         C  0.74075602  0.07761194  0.93691606     0.11800
C51         C  0.72540124  0.12253515  0.90473890     0.22800
C52         C  0.73326699  0.16653705  0.99370511    -0.52100
C53         C  0.74065041  0.16670591  0.93693347     0.11900
C54         C  0.67689418  0.12266237  0.97553518    -0.51600
C55         C  0.68447050  0.12313392  0.91877988     0.12500
H56         H  0.74258912  0.04827905  0.02236078     0.17000
H57         H  0.73158465  0.12289993  0.85848350     0.02800
H58         H  0.74232184  0.19522126  0.02217538     0.17300
H59         H  0.64928606  0.12361020  0.99223473     0.17100
O60         O  0.90090023  0.33065957  0.95350644    -0.76100
C61         C  0.80416812  0.27566211  0.87316739     0.85000
O62         O  0.92992511  0.31031014  0.75115158    -0.77200
O63         O  0.80684870  0.37596665  0.72602810    -0.78700
O64         O  0.83867403  0.47584664  0.88939521    -0.78500
O65         O  0.90588531  0.41200741  0.95389955    -0.77100
Zn66       Zn  0.88235447  0.31338476  0.87478741     1.55700
O67         O  0.79230376  0.43649589  0.84860218    -0.78500
Cd68       Cd  0.88381459  0.43107913  0.87554299     1.59700
Cd69       Cd  0.89739720  0.37180396  0.75746639     1.59600
O70         O  0.92297451  0.47062284  0.83280570    -0.78500
O71         O  0.86989069  0.37191536  0.83091084    -1.89000
Cd72       Cd  0.81629542  0.37443609  0.81337516     1.59900
O73         O  0.93183966  0.43105639  0.75127979    -0.78500
O74         O  0.79110312  0.31267356  0.84659100    -0.77100
C75         C  0.93683413  0.27578944  0.78622528     0.85400
C76         C  0.90960060  0.37036864  0.97820482     0.85100
O77         O  0.83786812  0.27150427  0.88528311    -0.76100
C78         C  0.80502039  0.47245256  0.87654143     0.85900
O79         O  0.92115352  0.27310150  0.83456331    -0.76200
C80         C  0.93898002  0.46594497  0.78503786     0.86000
C81         C  0.82823041  0.37517516  0.68334590     0.86400
O82         O  0.86273791  0.37354152  0.68847380    -0.78600
C83         C  0.79537957  0.37810447  0.51677052     0.88900
C84         C  0.77255113  0.42285134  0.49859807    -0.51300
C85         C  0.76517523  0.42423319  0.44177529     0.11800
C86         C  0.78125046  0.38085616  0.40835786     0.22800
C87         C  0.77401210  0.33347891  0.49590559    -0.52100
C88         C  0.76671898  0.33501216  0.43900347     0.11900
C89         C  0.82962945  0.37979722  0.47942709    -0.51600
C90         C  0.82213406  0.38112263  0.42267840     0.12500
H91         H  0.76298796  0.45073147  0.52792504     0.17000
H92         H  0.77519631  0.38201499  0.36206107     0.02800
H93         H  0.76546613  0.30354277  0.52345240     0.17300
H94         H  0.85722503  0.37952475  0.49625626     0.17100
C95         C  0.45696552  0.38401556  0.24129885     0.88900
C96         C  0.48026156  0.43006921  0.24782667    -0.51300
C97         C  0.50291116  0.42832022  0.29417479     0.11800
C98         C  0.49944753  0.38093033  0.32946709     0.22800
C99         C  0.48426688  0.34107378  0.24039422    -0.52100
C100        C  0.50666888  0.33960606  0.28709839     0.11900
C101        C  0.43648340  0.37868353  0.29759819    -0.51600
C102        C  0.45888929  0.37674929  0.34385206     0.12500
H103        H  0.47864088  0.46080987  0.21840198     0.17000
H104        H  0.51745887  0.37967660  0.36747949     0.02800
H105        H  0.48511943  0.31449777  0.20634404     0.17300
H106        H  0.40703168  0.37547487  0.30048034     0.17100
C107        C  0.05193308  0.12303314  0.74056682     0.88900
C108        C  0.02732804  0.07752359  0.74125682    -0.51300
C109        C  0.00443167  0.07582026  0.78733016     0.11800
C110        C  0.00866023  0.11930427  0.82771969     0.22800
C111        C  0.02569232  0.16696714  0.74409640    -0.52100
C112        C  0.00275536  0.16492655  0.79008474     0.11900
C113        C  0.07194208  0.12205932  0.79769681    -0.51600
C114        C  0.04914041  0.11988727  0.84334082     0.12500
H115        H  0.02829612  0.04968449  0.70857468     0.17000
H116        H  0.99036800  0.11785147  0.86535270     0.02800
H117        H  0.02594743  0.19680434  0.71338874     0.17300
H118        H  0.10144949  0.12241254  0.80173425     0.17100
O119        O  0.10280687  0.10594824  0.00633628    -0.76100
C120        C  0.20114916  0.04188105  0.07959237     0.85000
O121        O  0.07305526  0.08124889  0.20350350    -0.77200
O122        O  0.19744444  0.13543150  0.23398250    -0.78700
O123        O  0.17227307  0.24504448  0.07658272    -0.78500
O124        O  0.10898536  0.18731546  0.00389770    -0.77100
Zn125      Zn  0.12313260  0.08377199  0.08222672     1.55700
O126        O  0.21688655  0.19962929  0.11516538    -0.78500
Cd127      Cd  0.12605487  0.20307404  0.08505700     1.59700
Cd128      Cd  0.10707105  0.14133954  0.19876101     1.59600
O129        O  0.08594784  0.24536365  0.12419799    -0.78500
O130        O  0.13665506  0.14060229  0.12746235    -1.89000
Cd131      Cd  0.19012428  0.13773745  0.14629710     1.59900
O132        O  0.07416765  0.20324121  0.20351284    -0.78500
O133        O  0.21435916  0.07602441  0.10996552    -0.77100
C134        C  0.06744523  0.04621484  0.16918130     0.85400
C135        C  0.10009720  0.14715318  0.98062347     0.85100
O136        O  0.16742928  0.04047839  0.06652824    -0.76100
C137        C  0.20560836  0.23815275  0.08941452     0.85900
O138        O  0.08459917  0.04295292  0.12214395    -0.76200
C139        C  0.06870766  0.24005495  0.17089841     0.86000
C140        C  0.17516131  0.13736651  0.27551095     0.86400
O141        O  0.14077459  0.13995965  0.26880975    -0.78600
C142        C  0.20656038  0.13551409  0.44260972     0.88900
C143        C  0.23119206  0.17742720  0.46192962    -0.51300
C144        C  0.23910814  0.17581290  0.51858335     0.11800
C145        C  0.22161983  0.13246286  0.55067822     0.22800
C146        C  0.22630804  0.08837656  0.46111259    -0.52100
C147        C  0.23407625  0.08678035  0.51773684     0.11900
C148        C  0.17270637  0.13855397  0.48069579    -0.51600
C149        C  0.18063545  0.13677693  0.53731262     0.12500
H150        H  0.24156139  0.20560721  0.43344735     0.17000
H151        H  0.22810705  0.13102602  0.59681772     0.02800
H152        H  0.23352981  0.05899474  0.43214315     0.17300
H153        H  0.14501001  0.14077970  0.46441856     0.17100
O154        O  0.33939827  0.28013589  0.56767998    -0.76100
C155        C  0.40408781  0.38838385  0.48033593     0.85000
O156        O  0.43274029  0.31680066  0.70240890    -0.77200
O157        O  0.41997370  0.48192224  0.62661266    -0.78700
O158        O  0.28862948  0.43925941  0.61165403    -0.78500
O159        O  0.29275778  0.31558965  0.61307129    -0.77100
Zn160      Zn  0.38362873  0.32296819  0.58125035     1.55700
O161        O  0.33370341  0.48559155  0.57785238    -0.78500
Cd162      Cd  0.31603720  0.37842510  0.64651875     1.59700
Cd163      Cd  0.39917310  0.37808159  0.69904814     1.59600
O164        O  0.30866781  0.37865572  0.73434243    -0.78500
O165        O  0.36951996  0.37930147  0.62783341    -1.89000
Cd166      Cd  0.37949705  0.44220262  0.58701956     1.59900
O167        O  0.36547327  0.37780230  0.76911751    -0.78500
O168        O  0.39553804  0.42784650  0.50554953    -0.77100
C169        C  0.43932481  0.28255116  0.66725277     0.85400
C170        C  0.30598492  0.28132153  0.58259739     0.85100
O171        O  0.40227089  0.34640660  0.50448217    -0.76100
C172        C  0.30007323  0.47812785  0.58718801     0.85900
O173        O  0.42305584  0.28052334  0.61932385    -0.76200
C174        C  0.33104665  0.37838610  0.77587940     0.86000
C175        C  0.43789305  0.47556637  0.67258297     0.86400
O176        O  0.43277868  0.43857143  0.70484065    -0.78600
C177        C  0.30138215  0.38326067  0.94360482     0.88900
C178        C  0.27874704  0.34030675  0.96625885    -0.51300
C179        C  0.27209935  0.34278354  0.02321712     0.11800
C180        C  0.28855412  0.38795235  0.05223152     0.22800
C181        C  0.28035307  0.42957141  0.96096892    -0.52100
C182        C  0.27375806  0.43200037  0.01793035     0.11900
C183        C  0.33607909  0.38324600  0.98002140    -0.51600
C184        C  0.32924318  0.38576211  0.03687891     0.12500
H185        H  0.26880823  0.31077271  0.93974606     0.17000
H186        H  0.28304394  0.38997359  0.09861859     0.02800
H187        H  0.27152094  0.45780246  0.93107377     0.17300
H188        H  0.36346386  0.38156238  0.96251701     0.17100
C189        C  0.31734735  0.37921228  0.83295956    -0.10900
C190        C  0.30888118  0.38070475  0.88243186    -0.12400
C191        C  0.26240367  0.21169053  0.54491135    -0.10900
C192        C  0.28222678  0.24296142  0.56352041    -0.12400
C193        C  0.27100687  0.01156122  0.56038624    -0.10900
C194        C  0.25304591  0.04577054  0.54325778    -0.12400
C195        C  0.19793456  0.13673790  0.38176654    -0.10900
C196        C  0.18898675  0.13692145  0.33248497    -0.12400
C197        C  0.23130758  0.27493864  0.07229578    -0.10900
C198        C  0.25076503  0.30622180  0.05251245    -0.12400
C199        C  0.25415207  0.47244621  0.04294749    -0.10900
C200        C  0.22516631  0.00391626  0.05861034    -0.12400
C201        C  0.15252088  0.13552844  0.58018717    -0.16100
C202        C  0.12840388  0.13283139  0.61492157     0.08000
C203        C  0.10028643  0.12878340  0.65575011     0.09800
C204        C  0.07732766  0.12557850  0.69231008    -0.16900
C205        C  0.06203099  0.11745534  0.90256690    -0.14000
C206        C  0.08706299  0.14881894  0.92167559    -0.29200
H207        H  0.04914755  0.09164906  0.93153068     0.15000
H208        H  0.09704037  0.17782616  0.89393281     0.15600
C209        C  0.43222542  0.38566263  0.19233393    -0.16100
C210        C  0.40980109  0.38658608  0.15489980     0.08000
C211        C  0.38208731  0.38693254  0.11333140     0.09800
C212        C  0.35796055  0.38659686  0.07858731    -0.16900
C213        C  0.41580109  0.39225006  0.42106860    -0.14000
C214        C  0.44577494  0.36934335  0.40244840    -0.29200
H215        H  0.40149192  0.41813581  0.39354098     0.15000
H216        H  0.46246768  0.34790974  0.43174555     0.15600
C217        C  0.97739796  0.03715825  0.80020765    -0.14000
C218        C  0.96803734  0.00096916  0.76471789    -0.29200
H219        H  0.96397412  0.03963043  0.84125020     0.15000
H220        H  0.97832988  0.49887632  0.72567585     0.15600
C221        C  0.96417794  0.23864088  0.76966939    -0.14000
C222        C  0.97481795  0.20232971  0.80492294    -0.29200
H223        H  0.97584579  0.24186470  0.72748063     0.15000
H224        H  0.96224238  0.19916201  0.84656968     0.15600
C225        C  0.81326308  0.37605257  0.62693862    -0.10900
C226        C  0.80376889  0.37675038  0.57782743    -0.12400
C227        C  0.78232925  0.00857567  0.89114848    -0.10900
C228        C  0.76283062  0.04014398  0.91050034    -0.12400
C229        C  0.78014271  0.23741991  0.89134027    -0.10900
C230        C  0.76150007  0.20500353  0.91029110    -0.12400
C231        C  0.54016743  0.50244671  0.27407398    -0.14000
C232        C  0.52947150  0.46672364  0.30987775    -0.29200
H233        H  0.52807562  0.00648158  0.22317888     0.15000
H234        H  0.54172084  0.46399920  0.35184461     0.15600
C235        C  0.53499771  0.30216555  0.29942386    -0.14000
C236        C  0.54453332  0.26617098  0.26374686    -0.29200
H237        H  0.54837276  0.30445817  0.34052883     0.15000
H238        H  0.53180548  0.26315082  0.22232586     0.15600
C239        C  0.70291493  0.12231124  0.07417456    -0.10900
C240        C  0.69389845  0.12409161  0.12341936    -0.12400
C241        C  0.72457241  0.49556802  0.39740319    -0.10900
C242        C  0.74353191  0.46290820  0.41617902    -0.12400
C243        C  0.74669248  0.29691874  0.41065923    -0.10900
C244        C  0.72852848  0.26501881  0.38972247    -0.12400
C245        C  0.58132071  0.13350413  0.76327589    -0.16100
C246        C  0.60463132  0.13320349  0.79948208     0.08000
C247        C  0.63249708  0.13006753  0.84087040     0.09800
C248        C  0.65631091  0.12660144  0.87608261    -0.16900
C249        C  0.47983672  0.03583361  0.68244029    -0.14000
C250        C  0.45573448  0.02772840  0.64081319    -0.29200
H251        H  0.48136080  0.01021568  0.71798144     0.15000
H252        H  0.45407582  0.05250714  0.60477337     0.15600
C253        C  0.47476981  0.20520023  0.65231505    -0.14000
C254        C  0.46688634  0.24503810  0.68374734    -0.29200
H255        H  0.45986095  0.19928073  0.61307859     0.15000
H256        H  0.48072050  0.25069287  0.72387577     0.15600
C257        C  0.55839078  0.11352709  0.55550172    -0.14000
C258        C  0.58491433  0.14138304  0.53310735    -0.29200
H259        H  0.54367712  0.08793257  0.52893049     0.15000
H260        H  0.59680608  0.17033137  0.55852532     0.15600
C261        C  0.85040557  0.38141739  0.38016057    -0.16100
C262        C  0.87432331  0.38145493  0.34503741     0.08000
C263        C  0.90216020  0.38216761  0.30362696     0.09800
C264        C  0.92525512  0.38428447  0.26725498    -0.16900
C265        C  0.03307192  0.31718416  0.15756082    -0.14000
C266        C  0.04111665  0.27677326  0.18851002    -0.29200
H267        H  0.04800176  0.32414584  0.11851819     0.15000
H268        H  0.02701794  0.26960683  0.22812023     0.15600
C269        C  0.05253252  0.48935602  0.14694612    -0.14000
C270        C  0.02434016  0.48546377  0.18290217    -0.29200
H271        H  0.02608499  0.01329915  0.22524438     0.15000
H272        H  0.01955079  0.51444905  0.21355490     0.15600
C273        C  0.94678045  0.40036115  0.05856759    -0.14000
C274        C  0.92313627  0.36773963  0.03725095    -0.29200
H275        H  0.95894357  0.42788257  0.03103460     0.15000
H276        H  0.91387716  0.33751336  0.06381114     0.15600
C277        C  0.95707234  0.88638357  0.21213252     0.88900
C278        C  0.98332324  0.84223270  0.21162474    -0.51300
C279        C  0.00686623  0.84262464  0.16635686     0.11800
C280        C  0.00161117  0.88710749  0.12642382     0.22800
C281        C  0.98175190  0.93180463  0.21008512    -0.52100
C282        C  0.00536260  0.93203141  0.16484974     0.11900
C283        C  0.93788943  0.88544363  0.15430546    -0.51600
C284        C  0.96130248  0.88607491  0.10931628     0.12500
H285        H  0.98301753  0.81381590  0.24408501     0.17000
H286        H  0.02043358  0.88737206  0.08940554     0.02800
H287        H  0.98022094  0.96072379  0.24142295     0.17300
H288        H  0.90843783  0.88558876  0.14934969     0.17100
C289        C  0.55035172  0.63179248  0.71655633     0.88900
C290        C  0.52512246  0.67701172  0.71448962    -0.51300
C291        C  0.50181490  0.67721103  0.66886812     0.11800
C292        C  0.50642405  0.63235066  0.63006590     0.22800
C293        C  0.52463438  0.58745019  0.71519595    -0.52100
C294        C  0.50140081  0.58794331  0.66950935     0.11900
C295        C  0.56995742  0.63143620  0.65907139    -0.51600
C296        C  0.54683983  0.63135070  0.61367681     0.12900
H297        H  0.52572385  0.70550757  0.74643049     0.17000
H298        H  0.48784630  0.63256603  0.59271794     0.02800
H299        H  0.52521262  0.55871634  0.74729516     0.17300
H300        H  0.59941931  0.62953074  0.65470790     0.17100
O301        O  0.61023905  0.68325477  0.44762834    -0.76100
C302        C  0.70597400  0.73052644  0.36435706     0.85000
O303        O  0.57487882  0.69335589  0.24872332    -0.77200
O304        O  0.69887221  0.62850186  0.22170141    -0.78700
O305        O  0.66745929  0.53333064  0.39314885    -0.78500
O306        O  0.60213305  0.60248289  0.45406379    -0.77100
Zn307      Zn  0.62721949  0.69620015  0.36755838     1.55700
O308        O  0.71372538  0.56808777  0.34619378    -0.78500
Cd309      Cd  0.62282367  0.57842155  0.37712656     1.59700
Cd310      Cd  0.60867014  0.63302121  0.25615557     1.59600
O311        O  0.58301675  0.53668076  0.33854192    -0.78500
O312        O  0.63753646  0.63524886  0.32810327    -1.89000
Cd313      Cd  0.69086598  0.63080334  0.30941774     1.59900
O314        O  0.57521646  0.57251555  0.25391907    -0.78500
O315        O  0.71800887  0.69172842  0.34074681    -0.77100
C316        C  0.56966942  0.72974109  0.28131945     0.85400
C317        C  0.60049083  0.64532093  0.47531025     0.85100
O318        O  0.67227458  0.73731658  0.37457618    -0.76100
C319        C  0.70076399  0.53423724  0.37779344     0.85900
O320        O  0.58771014  0.73503027  0.32722316    -0.76200
C321        C  0.56766857  0.53908537  0.28995245     0.86000
C322        C  0.67678592  0.62914976  0.17980264     0.86400
O323        O  0.64236397  0.63103514  0.18613997    -0.78600
C324        C  0.70775228  0.62559163  0.01233404     0.88900
C325        C  0.73039204  0.58085330  0.99435126    -0.51300
C326        C  0.73780417  0.57995661  0.93755216     0.11800
C327        C  0.72175492  0.62368696  0.90389630     0.22800
C328        C  0.72932216  0.67018308  0.99125932    -0.52100
C329        C  0.73661276  0.66909469  0.93439775     0.11900
C330        C  0.67344479  0.62450112  0.97505435    -0.51600
C331        C  0.68079885  0.62361828  0.91825623     0.12500
H332        H  0.74016600  0.55290864  0.02389916     0.17000
H333        H  0.72781833  0.62292355  0.85762249     0.02800
H334        H  0.73826753  0.69961194  0.01876620     0.17300
H335        H  0.64588565  0.62502433  0.99197740     0.17100
O336        O  0.89878887  0.82527489  0.94637932    -0.76100
C337        C  0.80179573  0.77499499  0.86664170     0.85000
O338        O  0.93097495  0.80865102  0.74685384    -0.77200
O339        O  0.80828972  0.87467708  0.71844703    -0.78700
O340        O  0.84002251  0.97260359  0.88559610    -0.78500
O341        O  0.90650448  0.90622728  0.94785242    -0.77100
Zn342      Zn  0.88059385  0.80991880  0.86761513     1.55700
O343        O  0.79357756  0.93605073  0.84149883    -0.78500
Cd344      Cd  0.88476140  0.92774223  0.87031790     1.59700
Cd345      Cd  0.89869946  0.87033369  0.75239988     1.59600
O346        O  0.92408552  0.96830597  0.82876421    -0.78500
O347        O  0.87000564  0.86960065  0.82468032    -1.89000
Cd348      Cd  0.81655960  0.87326638  0.80627164     1.59900
O349        O  0.93335821  0.92979567  0.74680263    -0.78500
O350        O  0.78965272  0.81265656  0.84016694    -0.77100
C351        C  0.93645139  0.77319184  0.78126064     0.85400
C352        C  0.90870993  0.86413597  0.97152568     0.85100
O353        O  0.83547226  0.76917667  0.87795573    -0.76100
C354        C  0.80651722  0.97063087  0.87148009     0.85900
O355        O  0.91931680  0.76954704  0.82824673    -0.76200
C356        C  0.94027016  0.96445221  0.78102747     0.86000
C357        C  0.83035224  0.87388267  0.67654038     0.86400
O358        O  0.86476514  0.87220521  0.68285081    -0.78600
C359        C  0.80017205  0.87787029  0.50875482     0.88900
C360        C  0.77687169  0.92236357  0.49143380    -0.51300
C361        C  0.76932714  0.92426968  0.43472918     0.11800
C362        C  0.78594407  0.88180579  0.40040697     0.22800
C363        C  0.77920905  0.83320907  0.48714922    -0.52100
C364        C  0.77178190  0.83540680  0.43034098     0.11900
C365        C  0.83441590  0.88068965  0.47140964    -0.51600
C366        C  0.82692124  0.88269536  0.41461127     0.12500
H367        H  0.76668009  0.94934956  0.52137669     0.17000
H368        H  0.77972152  0.88347888  0.35418450     0.02800
H369        H  0.77054205  0.80308726  0.51433467     0.17300
H370        H  0.86199979  0.88076089  0.48827715     0.17100
C371        C  0.45494623  0.88417613  0.23698441     0.88900
C372        C  0.47938246  0.92965969  0.24011356    -0.51300
C373        C  0.50191277  0.92946308  0.28660211     0.11800
C374        C  0.49745544  0.88440170  0.32510206     0.22800
C375        C  0.48127759  0.84023621  0.23909372    -0.52100
C376        C  0.50384547  0.84049169  0.28567485     0.11900
C377        C  0.43445787  0.88259624  0.29355822    -0.51600
C378        C  0.45683972  0.88303258  0.33971015     0.12500
H379        H  0.47854557  0.95889724  0.20863369     0.17000
H380        H  0.51542310  0.88451484  0.36317637     0.02800
H381        H  0.48165883  0.81212855  0.20672842     0.17300
H382        H  0.40490974  0.88286934  0.29689699     0.17100
C383        C  0.05130100  0.62059667  0.73825466     0.88900
C384        C  0.02693667  0.57514083  0.74195735    -0.51300
C385        C  0.00501590  0.57474686  0.78912421     0.11800
C386        C  0.01001943  0.61930700  0.82765035     0.22800
C387        C  0.02512436  0.66446912  0.74126561    -0.52100
C388        C  0.00314148  0.66368613  0.78838378     0.11900
C389        C  0.07261097  0.62139500  0.79407605    -0.51600
C390        C  0.05087789  0.62050530  0.84094457     0.12500
H391        H  0.02727968  0.54648399  0.71022592     0.17000
H392        H  0.99252990  0.61882883  0.86622776     0.02800
H393        H  0.02457299  0.69312192  0.70908976     0.17300
H394        H  0.10219731  0.62168945  0.79642156     0.17100
O395        O  0.11331382  0.60587287  0.99544573    -0.76100
C396        C  0.21122614  0.54409527  0.07791528     0.85000
O397        O  0.07735650  0.56442362  0.18364166    -0.77200
O398        O  0.19835544  0.63648340  0.23301424    -0.78700
O399        O  0.17480895  0.74310127  0.07265617    -0.78500
O400        O  0.11083464  0.68731992  0.00080279    -0.77100
Zn401      Zn  0.13349498  0.58265007  0.07015394     1.55700
O402        O  0.22024839  0.70016565  0.11256189    -0.78500
Cd403      Cd  0.12959805  0.69944757  0.08206376     1.59700
Cd404      Cd  0.10885665  0.62844398  0.19015207     1.59600
O405        O  0.08955204  0.73734788  0.12505750    -0.78500
O406        O  0.14152534  0.63644998  0.12193607    -1.89000
Cd407      Cd  0.19430266  0.63773148  0.14487810     1.59900
O408        O  0.07334229  0.68843590  0.19706100    -0.78500
O409        O  0.22159985  0.57648410  0.11312338    -0.77100
C410        C  0.07688311  0.53225512  0.14434421     0.85400
C411        C  0.10579785  0.64766535  0.97392677     0.85100
O412        O  0.17920407  0.54373536  0.05729407    -0.76100
C413        C  0.20827819  0.73763823  0.08541837     0.85900
O414        O  0.09721622  0.53565487  0.10091224    -0.76200
C415        C  0.06974116  0.72805650  0.16828296     0.86000
C416        C  0.17509935  0.63091448  0.27280148     0.86400
O417        O  0.14100050  0.62612791  0.26341386    -0.78600
C418        C  0.20574606  0.63005090  0.44117162     0.88900
C419        C  0.22755618  0.67467581  0.46131618    -0.51300
C420        C  0.23453070  0.67406910  0.51841933     0.11800
C421        C  0.21907324  0.62920913  0.54991821     0.22800
C422        C  0.22796578  0.58512063  0.46113244    -0.52100
C423        C  0.23483457  0.58479162  0.51823577     0.11900
C424        C  0.17129524  0.62974623  0.47786555    -0.51600
C425        C  0.17837389  0.62926178  0.53464116     0.12500
H426        H  0.23682154  0.70373340  0.43309860     0.17000
H427        H  0.22466476  0.62879005  0.59636999     0.02800
H428        H  0.23735114  0.55634670  0.43285361     0.17300
H429        H  0.14381315  0.62951113  0.46057721     0.17100
O430        O  0.33319203  0.77415362  0.57676220    -0.76100
C431        C  0.40177538  0.86400572  0.47462973     0.85000
O432        O  0.43456231  0.83049105  0.69892684    -0.77200
O433        O  0.41175692  0.98112983  0.59478839    -0.78700
O434        O  0.28658385  0.94092117  0.61263653    -0.78500
O435        O  0.28688658  0.81721090  0.61288902    -0.77100
Zn436      Zn  0.37766856  0.81650760  0.58559282     1.55700
O437        O  0.32734838  0.97336888  0.55301359    -0.78500
Cd438      Cd  0.31327906  0.87889998  0.64482125     1.59700
Cd439      Cd  0.39846623  0.88965118  0.68974128     1.59600
O440        O  0.30921686  0.88032079  0.73293041    -0.78500
O441        O  0.36600019  0.87852911  0.62200921    -1.89000
Cd442      Cd  0.37393492  0.93271570  0.56642996     1.59900
O443        O  0.36635542  0.89302367  0.76295212    -0.78500
O444        O  0.39415909  0.90724550  0.49091521    -0.77100
C445        C  0.43766648  0.79054017  0.67129264     0.85400
C446        C  0.29939360  0.77958034  0.58732087     0.85100
O447        O  0.39661719  0.82661203  0.50608623    -0.76100
C448        C  0.29604295  0.97318822  0.57613498     0.85900
O449        O  0.41702029  0.78087146  0.62923758    -0.76200
C450        C  0.33234732  0.88737902  0.77251185     0.86000
C451        C  0.43103377  0.98522783  0.63925115     0.86400
O452        O  0.42932724  0.95422026  0.68023795    -0.78600
C453        C  0.30016055  0.89055266  0.94022900     0.88900
C454        C  0.27936052  0.84498741  0.96075492    -0.51300
C455        C  0.27133386  0.84578282  0.01746075     0.11800
C456        C  0.28466308  0.89185771  0.04826074     0.22800
C457        C  0.27619763  0.93440331  0.95758553    -0.52100
C458        C  0.26802336  0.93501076  0.01424658     0.11900
C459        C  0.33383040  0.89303181  0.97858771    -0.51600
C460        C  0.32569748  0.89351071  0.03504116     0.12500
H461        H  0.27170376  0.81499728  0.93311523     0.17000
H462        H  0.27812134  0.89231036  0.09438708     0.02800
H463        H  0.26639158  0.96213412  0.92780826     0.17300
H464        H  0.36162729  0.89327196  0.96261573     0.17100
C465        C  0.31956142  0.88882343  0.83037659    -0.10900
C466        C  0.30971059  0.88971931  0.87940740    -0.12400
C467        C  0.25563958  0.71159264  0.54626811    -0.10900
C468        C  0.27464778  0.74263540  0.56738645    -0.12400
C469        C  0.27444687  0.51460136  0.56730502    -0.10900
C470        C  0.25554256  0.54626755  0.54612315    -0.12400
C471        C  0.19726931  0.63032360  0.37996907    -0.10900
C472        C  0.18780699  0.63038418  0.33073662    -0.12400
C473        C  0.23321171  0.77482010  0.06642338    -0.10900
C474        C  0.25151331  0.80692179  0.04556470    -0.12400
C475        C  0.24494484  0.97243670  0.03929745    -0.10900
C476        C  0.23601945  0.50605719  0.06071754    -0.12400
C477        C  0.14978910  0.62758989  0.57623725    -0.16100
C478        C  0.12550735  0.62562516  0.61044364     0.08000
C479        C  0.09766286  0.62319275  0.65138589     0.09800
C480        C  0.07537210  0.62153714  0.68877418    -0.16900
C481        C  0.06536195  0.61880913  0.89917697    -0.14000
C482        C  0.09094989  0.65027521  0.91620849    -0.29200
H483        H  0.05365736  0.59275907  0.92908794     0.15000
H484        H  0.09985288  0.67964372  0.88808725     0.15600
C485        C  0.42989467  0.88467100  0.18839551    -0.16100
C486        C  0.40671276  0.88659827  0.15213113     0.08000
C487        C  0.37813285  0.88976494  0.11211557     0.09800
C488        C  0.35372001  0.89221033  0.07791726    -0.16900
C489        C  0.41686873  0.85716465  0.41764023    -0.14000
C490        C  0.44320029  0.88660831  0.39824516    -0.29200
H491        H  0.40700044  0.82712693  0.39181525     0.15000
H492        H  0.45556129  0.91342005  0.42615493     0.15600
C493        C  0.97791696  0.53681066  0.80374606    -0.14000
C494        C  0.96690221  0.50170990  0.76803157    -0.29200
H495        H  0.96570598  0.53918212  0.84570535     0.15000
H496        H  0.98067806  0.99787241  0.72321227     0.15600
C497        C  0.96394384  0.73610528  0.76572705    -0.14000
C498        C  0.97484353  0.70078829  0.80211752    -0.29200
H499        H  0.97576704  0.73894465  0.72363869     0.15000
H500        H  0.96231832  0.69834998  0.84385853     0.15600
C501        C  0.81643081  0.87490933  0.61952785    -0.10900
C502        C  0.80810685  0.87590675  0.56992316    -0.12400
C503        C  0.78043216  0.51050122  0.89489182    -0.10900
C504        C  0.76045864  0.54228835  0.91262793    -0.12400
C505        C  0.77679489  0.73811142  0.88603425    -0.10900
C506        C  0.75766758  0.70669248  0.90636054    -0.12400
C507        C  0.53961615  0.00322895  0.26549902    -0.14000
C508        C  0.52888618  0.96748602  0.30108949    -0.29200
H509        H  0.52899194  0.50490050  0.23145333     0.15000
H510        H  0.54130501  0.96459020  0.34291238     0.15600
C511        C  0.53246405  0.80353587  0.29914643    -0.14000
C512        C  0.54150113  0.76604951  0.26511317    -0.29200
H513        H  0.54678893  0.80784253  0.33921559     0.15000
H514        H  0.52772491  0.76096366  0.22482461     0.15600
C515        C  0.69963280  0.62669570  0.07347074    -0.10900
C516        C  0.69080950  0.62772038  0.12285676    -0.12400
C517        C  0.72544531  0.99317044  0.39322398    -0.10900
C518        C  0.74587879  0.96159208  0.41053536    -0.12400
C519        C  0.75058188  0.79845532  0.40213791    -0.10900
C520        C  0.73118176  0.76741058  0.38225280    -0.12400
C521        C  0.57611215  0.63081959  0.76454895    -0.16100
C522        C  0.59933732  0.62894452  0.80094205     0.08000
C523        C  0.62779986  0.62638362  0.84153252     0.09800
C524        C  0.65224549  0.62459373  0.87591639    -0.16900
C525        C  0.47357288  0.55048402  0.65611570    -0.14000
C526        C  0.46571720  0.51167375  0.68930713    -0.29200
H527        H  0.45876476  0.55560726  0.61653228     0.15000
H528        H  0.47993573  0.50571851  0.72915744     0.15600
C529        C  0.47348340  0.71494811  0.65611870    -0.14000
C530        C  0.46639508  0.75477507  0.68798216    -0.29200
H531        H  0.45750975  0.70906789  0.61791911     0.15000
H532        H  0.48211637  0.76201508  0.72601637     0.15600
C533        C  0.55924645  0.62617020  0.55430694    -0.14000
C534        C  0.58763428  0.65149319  0.53398728    -0.29200
H535        H  0.54382287  0.60250040  0.52629860     0.15000
H536        H  0.60068692  0.67891838  0.56026710     0.15600
C537        C  0.85530934  0.88442054  0.37202162    -0.16100
C538        C  0.87948793  0.88532187  0.33716021     0.08000
C539        C  0.90773329  0.88593621  0.29611708     0.09800
C540        C  0.93097822  0.88619240  0.25971594    -0.16900
C541        C  0.03533700  0.80513392  0.15421093    -0.14000
C542        C  0.04140924  0.76409085  0.18515294    -0.29200
H543        H  0.05190873  0.81188712  0.11676435     0.15000
H544        H  0.02514387  0.75607298  0.22249565     0.15600
C545        C  0.04007190  0.00890121  0.18498459    -0.14000
C546        C  0.03251053  0.97067275  0.15128482    -0.29200
H547        H  0.05782423  0.46075130  0.11627993     0.15000
H548        H  0.04727946  0.96675119  0.11154090     0.15600
C549        C  0.94907939  0.88861385  0.04955338    -0.14000
C550        C  0.92222673  0.86006199  0.03022495    -0.29200
H551        H  0.96326613  0.91318806  0.02064864     0.15000
H552        H  0.91059867  0.83206770  0.05775239     0.15600
loop_ 
_geom_bond_atom_site_label_1 
_geom_bond_atom_site_label_2 
_geom_bond_distance 
_geom_bond_site_symmetry_2 
_ccdc_geom_bond_type 
C1            C2   1.534       .  S
C1            C7   1.529       .  S
C1            C5   1.530       .  S
C1          C264   1.468       .  S
C2            H9   1.084       .  S
C2            C3   1.374   1_655  D
C3            C4   1.543   1_455  S
C3          C265   1.492       .  S
C4            C8   1.540       .  S
C4            C6   1.552       .  S
C4           H10   1.107   1_655  S
C5           H11   1.087       .  S
C5            C6   1.364       .  D
C6          C270   1.491   1_655  S
C7           H12   1.087       .  S
C7            C8   1.364       .  D
C8          C273   1.482       .  S
C13          C14   1.534       .  S
C13          C19   1.529       .  S
C13          C17   1.530       .  S
C13         C245   1.469       .  S
C14          H21   1.084       .  S
C14          C15   1.374       .  D
C15          C16   1.545       .  S
C15         C253   1.496       .  S
C16          C20   1.540       .  S
C16          C18   1.553       .  S
C16          H22   1.106       .  S
C17          H23   1.087       .  S
C17          C18   1.364       .  D
C18         C249   1.491       .  S
C19          H24   1.087       .  S
C19          C20   1.365       .  D
C20         C257   1.484       .  S
O25          C41   1.272       .  A
O25         Zn31   2.016       .  S
C26          O42   1.271       .  A
C26          O39   1.275       .  A
C26         C244   1.436       .  S
O27          C40   1.271       .  A
O27         Cd34   2.055       .  S
O28          C46   1.275       .  A
O28         Cd37   2.087       .  S
O29          C43   1.276       .  A
O29         Cd33   2.080       .  S
O30          C41   1.275       .  A
O30         Cd33   2.086       .  S
Zn31         O42   2.008       .  S
Zn31         O44   2.015       .  S
Zn31         O36   1.939       .  S
O32          C43   1.274       .  A
O32         Cd37   2.072       .  S
Cd33         O35   2.067       .  S
Cd33         O36   2.003       .  S
Cd34         O38   2.060       .  S
Cd34         O47   2.057       .  S
Cd34         O36   2.002       .  S
O35          C45   1.276       .  A
O36         Cd37   2.008       .  S
Cd37         O39   2.084       .  S
O38          C45   1.271       .  A
C40          O44   1.276       .  A
C40         C236   1.472       .  S
C41         C258   1.474       .  S
C43         C517   1.436   1_545  S
C45         C507   1.474       .  S
C46          O47   1.271       .  A
C46         C240   1.435       .  S
C48          C49   1.534   1_554  S
C48          C54   1.535   1_554  S
C48          C52   1.532   1_554  S
C48         C239   1.468       .  S
C49          H56   1.087   1_556  S
C49          C50   1.365       .  D
C50          C51   1.539       .  S
C50         C228   1.443       .  S
C51          C55   1.537       .  S
C51          C53   1.535       .  S
C51          H57   1.112       .  S
C52          H58   1.087   1_556  S
C52          C53   1.363       .  D
C53         C230   1.439       .  S
C54          H59   1.087       .  S
C54          C55   1.364       .  D
C55         C248   1.443       .  S
O60          C76   1.274       .  A
O60         Zn66   2.032       .  S
C61          O77   1.273       .  A
C61          O74   1.274       .  A
C61         C229   1.433       .  S
O62          C75   1.271       .  A
O62         Cd69   2.057       .  S
O63          C81   1.275       .  A
O63         Cd72   2.084       .  S
O64          C78   1.275       .  A
O64         Cd68   2.078       .  S
O65          C76   1.274       .  A
O65         Cd68   2.074       .  S
Zn66         O77   2.012       .  S
Zn66         O79   2.030       .  S
Zn66         O71   1.946       .  S
O67          C78   1.275       .  A
O67         Cd72   2.079       .  S
Cd68         O70   2.060       .  S
Cd68         O71   2.000       .  S
Cd69         O73   2.062       .  S
Cd69         O82   2.061       .  S
Cd69         O71   2.001       .  S
O70          C80   1.275       .  A
O71         Cd72   2.009       .  S
Cd72         O74   2.074       .  S
O73          C80   1.272       .  A
C75          O79   1.277       .  A
C75         C221   1.475       .  S
C76         C274   1.476   1_556  S
C78         C503   1.439       .  S
C80         C494   1.472       .  S
C81          O82   1.272       .  A
C81         C225   1.436       .  S
C83          C84   1.533       .  S
C83          C89   1.534       .  S
C83          C87   1.535       .  S
C83         C226   1.469       .  S
C84          H91   1.087       .  S
C84          C85   1.364       .  D
C85          C86   1.539       .  S
C85         C242   1.444       .  S
C86          C90   1.537       .  S
C86          C88   1.537       .  S
C86          H92   1.112       .  S
C87          H93   1.086       .  S
C87          C88   1.365       .  D
C88         C243   1.443       .  S
C89          H94   1.087       .  S
C89          C90   1.363       .  D
C90         C261   1.441       .  S
C95          C96   1.532       .  S
C95         C101   1.530       .  S
C95          C99   1.536       .  S
C95         C209   1.466       .  S
C96         H103   1.085       .  S
C96          C97   1.371       .  D
C97          C98   1.537       .  S
C97         C232   1.483       .  S
C98         C102   1.531       .  S
C98         C100   1.531       .  S
C98         H104   1.112       .  S
C99         H105   1.084       .  S
C99         C100   1.372       .  D
C100        C235   1.479       .  S
C101        H106   1.087       .  S
C101        C102   1.364       .  D
C102        C214   1.473       .  S
C107        C108   1.539       .  S
C107        C113   1.531       .  S
C107        C111   1.534       .  S
C107        C204   1.470       .  S
C108        H115   1.084       .  S
C108        C109   1.372       .  D
C109        C110   1.533       .  S
C109        C217   1.482   1_455  S
C110        C114   1.530       .  S
C110        C112   1.536       .  S
C110        H116   1.112   1_455  S
C111        H117   1.084       .  S
C111        C112   1.372       .  D
C112        C222   1.484   1_455  S
C113        H118   1.087       .  S
C113        C114   1.363       .  D
C114        C205   1.472       .  S
O119        C135   1.275   1_554  A
O119       Zn125   2.022       .  S
C120        O136   1.275       .  A
C120        O133   1.275       .  A
C120        C200   1.444       .  S
O121        C134   1.273       .  A
O121       Cd128   2.068       .  S
O122        C140   1.275       .  A
O122       Cd131   2.081       .  S
O123        C137   1.272       .  A
O123       Cd127   2.060       .  S
O124        C135   1.272   1_554  A
O124       Cd127   2.058       .  S
Zn125       O136   2.037       .  S
Zn125       O138   2.031       .  S
Zn125       O130   1.952       .  S
O126        C137   1.275       .  A
O126       Cd131   2.086       .  S
Cd127       O129   2.082       .  S
Cd127       O130   2.003       .  S
Cd128       O132   2.072       .  S
Cd128       O141   2.060       .  S
Cd128       O130   1.998       .  S
O129        C139   1.276       .  A
O130       Cd131   2.011       .  S
Cd131       O133   2.086       .  S
O132        C139   1.274       .  A
C134        O138   1.277       .  A
C134        C545   1.480       .  S
C135        C206   1.467       .  S
C137        C197   1.437       .  S
C139        C266   1.480       .  S
C140        O141   1.272       .  A
C140        C196   1.433       .  S
C142        C143   1.533       .  S
C142        C148   1.534       .  S
C142        C146   1.531       .  S
C142        C195   1.466       .  S
C143        H150   1.087       .  S
C143        C144   1.364       .  D
C144        C145   1.541       .  S
C144        C191   1.445       .  S
C145        C149   1.539       .  S
C145        C147   1.538       .  S
C145        H151   1.112       .  S
C146        H152   1.087       .  S
C146        C147   1.362       .  D
C147        C194   1.440       .  S
C148        H153   1.087       .  S
C148        C149   1.364       .  D
C149        C201   1.443       .  S
O154        C170   1.275       .  A
O154       Zn160   2.031       .  S
C155        O171   1.276       .  A
C155        O168   1.270       .  A
C155        C213   1.463       .  S
O156        C169   1.274       .  A
O156       Cd163   2.070       .  S
O157        C175   1.275       .  A
O157       Cd166   2.068       .  S
O158        C172   1.276       .  A
O158       Cd162   2.096       .  S
O159        C170   1.275       .  A
O159       Cd162   2.078       .  S
Zn160       O171   2.032       .  S
Zn160       O173   2.048       .  S
Zn160       O165   1.960       .  S
O161        C172   1.271       .  A
O161       Cd166   2.058       .  S
Cd162       O164   2.084       .  S
Cd162       O165   2.011       .  S
Cd163       O167   2.061       .  S
Cd163       O176   2.070       .  S
Cd163       O165   1.997       .  S
O164        C174   1.276       .  A
O165       Cd166   1.995       .  S
Cd166       O168   2.045       .  S
O167        C174   1.273       .  A
C169        O173   1.277       .  A
C169        C254   1.483       .  S
C170        C192   1.440       .  S
C172        C469   1.439       .  S
C174        C189   1.434       .  S
C175        O176   1.273       .  A
C175        C526   1.478       .  S
C177        C178   1.533       .  S
C177        C183   1.534       .  S
C177        C181   1.533       .  S
C177        C190   1.467       .  S
C178        H185   1.087       .  S
C178        C179   1.364   1_556  D
C179        C180   1.539       .  S
C179        C198   1.443       .  S
C180        C184   1.537       .  S
C180        C182   1.538       .  S
C180        H186   1.112       .  S
C181        H187   1.087       .  S
C181        C182   1.364   1_556  D
C182        C199   1.442       .  S
C183        H188   1.087       .  S
C183        C184   1.363   1_556  D
C184        C212   1.440       .  S
C189        C190   1.206       .  T
C191        C192   1.208       .  T
C193        C448   1.434   1_545  S
C193        C194   1.205       .  T
C195        C196   1.205       .  T
C197        C198   1.207       .  T
C199        C476   1.206       .  T
C200        C475   1.211   1_545  T
C201        C202   1.207       .  T
C202        C203   1.414       .  S
C203        C204   1.207       .  T
C205        H207   1.087       .  S
C205        C206   1.338       .  D
C206        H208   1.087       .  S
C209        C210   1.205       .  T
C210        C211   1.410       .  S
C211        C212   1.204       .  T
C213        H215   1.087       .  S
C213        C214   1.336       .  D
C214        H216   1.087       .  S
C217        H219   1.086       .  S
C217        C218   1.343       .  D
C218        H496   1.085   1_545  S
C218        C356   1.478   1_545  S
H220        C494   1.084       .  S
C221        H223   1.084       .  S
C221        C222   1.343       .  D
C222        H224   1.086       .  S
C225        C226   1.207       .  T
C227        C354   1.437   1_545  S
C227        C228   1.207       .  T
C229        C230   1.204       .  T
C231        H509   1.085       .  S
C231        C232   1.344       .  D
C231        C321   1.474       .  S
C232        H234   1.086       .  S
H233        C507   1.085       .  S
C235        H237   1.087       .  S
C235        C236   1.340       .  D
C236        H238   1.084       .  S
C239        C240   1.206       .  T
C241        C319   1.438       .  S
C241        C242   1.207       .  T
C243        C244   1.207       .  T
C245        C246   1.207       .  T
C246        C247   1.413       .  S
C247        C248   1.206       .  T
C249        H251   1.087       .  S
C249        C250   1.339       .  D
C250        H252   1.082       .  S
C250        C451   1.476   1_545  S
C253        H255   1.086       .  S
C253        C254   1.348       .  D
C254        H256   1.084       .  S
C257        H259   1.086       .  S
C257        C258   1.344       .  D
C258        H260   1.087       .  S
C261        C262   1.205       .  T
C262        C263   1.412       .  S
C263        C264   1.206       .  T
C265        H267   1.086       .  S
C265        C266   1.347       .  D
C266        H268   1.083       .  S
C269        H547   1.083       .  S
C269        C270   1.341       .  D
C269        C410   1.477       .  S
C270        H272   1.087       .  S
H271        C545   1.084       .  S
C273        H275   1.086       .  S
C273        C274   1.345       .  D
C274        H276   1.087       .  S
C277        C278   1.536       .  S
C277        C283   1.532       .  S
C277        C281   1.539       .  S
C277        C540   1.473       .  S
C278        H285   1.084       .  S
C278        C279   1.371   1_655  D
C279        C280   1.540       .  S
C279        C541   1.486       .  S
C280        C284   1.533   1_455  S
C280        C282   1.534       .  S
C280        H286   1.112       .  S
C281        H287   1.084       .  S
C281        C282   1.372   1_655  D
C282        C546   1.487       .  S
C283        H288   1.086       .  S
C283        C284   1.363       .  D
C284        C549   1.477       .  S
C289        C290   1.537       .  S
C289        C295   1.532       .  S
C289        C293   1.539       .  S
C289        C521   1.472       .  S
C290        H297   1.085       .  S
C290        C291   1.372       .  D
C291        C292   1.540       .  S
C291        C529   1.486       .  S
C292        C296   1.532       .  S
C292        C294   1.532       .  S
C292        H298   1.112       .  S
C293        H299   1.084       .  S
C293        C294   1.371       .  D
C294        C525   1.484       .  S
C295        H300   1.087       .  S
C295        C296   1.363       .  D
C296        C533   1.477       .  S
O301        C317   1.272       .  A
O301       Zn307   2.014       .  S
C302        O318   1.272       .  A
C302        O315   1.274       .  A
C302        C520   1.436       .  S
O303        C316   1.271       .  A
O303       Cd310   2.059       .  S
O304        C322   1.276       .  A
O304       Cd313   2.086       .  S
O305        C319   1.274       .  A
O305       Cd309   2.074       .  S
O306        C317   1.274       .  A
O306       Cd309   2.072       .  S
Zn307       O318   2.010       .  S
Zn307       O320   2.021       .  S
Zn307       O312   1.944       .  S
O308        C319   1.275       .  A
O308       Cd313   2.082       .  S
Cd309       O311   2.070       .  S
Cd309       O312   2.002       .  S
Cd310       O314   2.063       .  S
Cd310       O323   2.061       .  S
Cd310       O312   1.998       .  S
O311        C321   1.275       .  A
O312       Cd313   2.008       .  S
Cd313       O315   2.081       .  S
O314        C321   1.272       .  A
C316        O320   1.276       .  A
C316        C512   1.474       .  S
C317        C534   1.469       .  S
C322        O323   1.272       .  A
C322        C516   1.436       .  S
C324        C325   1.533   1_554  S
C324        C330   1.534   1_554  S
C324        C328   1.534   1_554  S
C324        C515   1.469       .  S
C325        H332   1.087   1_556  S
C325        C326   1.364       .  D
C326        C327   1.540       .  S
C326        C504   1.444       .  S
C327        C331   1.540       .  S
C327        C329   1.538       .  S
C327        H333   1.112       .  S
C328        H334   1.086   1_556  S
C328        C329   1.365       .  D
C329        C506   1.443       .  S
C330        H335   1.087       .  S
C330        C331   1.364       .  D
C331        C524   1.445       .  S
O336        C352   1.272       .  A
O336       Zn342   2.017       .  S
C337        O353   1.272       .  A
C337        O350   1.275       .  A
C337        C505   1.437       .  S
O338        C351   1.271       .  A
O338       Cd345   2.055       .  S
O339        C357   1.276       .  A
O339       Cd348   2.088       .  S
O340        C354   1.274       .  A
O340       Cd344   2.073       .  S
O341        C352   1.274       .  A
O341       Cd344   2.070       .  S
Zn342       O353   2.013       .  S
Zn342       O355   2.020       .  S
Zn342       O347   1.946       .  S
O343        C354   1.275       .  A
O343       Cd348   2.080       .  S
Cd344       O346   2.066       .  S
Cd344       O347   1.998       .  S
Cd345       O349   2.070       .  S
Cd345       O358   2.055       .  S
Cd345       O347   2.000       .  S
O346        C356   1.275       .  A
O347       Cd348   2.009       .  S
Cd348       O350   2.084       .  S
O349        C356   1.272       .  A
C351        O355   1.275       .  A
C351        C497   1.471       .  S
C352        C550   1.470   1_556  S
C357        O358   1.271       .  A
C357        C501   1.435       .  S
C359        C360   1.532       .  S
C359        C365   1.535       .  S
C359        C363   1.534       .  S
C359        C502   1.469       .  S
C360        H367   1.087       .  S
C360        C361   1.363       .  D
C361        C362   1.539       .  S
C361        C518   1.442       .  S
C362        C366   1.540       .  S
C362        C364   1.537       .  S
C362        H368   1.112       .  S
C363        H369   1.087       .  S
C363        C364   1.365       .  D
C364        C519   1.442       .  S
C365        H370   1.087       .  S
C365        C366   1.365       .  D
C366        C537   1.446       .  S
C371        C372   1.537       .  S
C371        C377   1.529       .  S
C371        C375   1.534       .  S
C371        C485   1.466       .  S
C372        H379   1.084       .  S
C372        C373   1.370       .  D
C373        C374   1.531       .  S
C373        C508   1.479       .  S
C374        C378   1.530       .  S
C374        C376   1.536       .  S
C374        H380   1.112       .  S
C375        H381   1.084       .  S
C375        C376   1.373       .  D
C376        C511   1.483       .  S
C377        H382   1.087       .  S
C377        C378   1.361       .  D
C378        C490   1.469       .  S
C383        C384   1.535       .  S
C383        C389   1.528       .  S
C383        C387   1.531       .  S
C383        C480   1.462       .  S
C384        H391   1.084       .  S
C384        C385   1.371       .  D
C385        C386   1.533       .  S
C385        C493   1.478   1_455  S
C386        C390   1.531       .  S
C386        C388   1.536       .  S
C386        H392   1.112   1_455  S
C387        H393   1.084       .  S
C387        C388   1.371       .  D
C388        C498   1.482   1_455  S
C389        H394   1.087       .  S
C389        C390   1.361       .  D
C390        C481   1.469       .  S
O395        C411   1.272       .  A
O395       Zn401   2.004   1_556  S
C396        O412   1.271       .  A
C396        O409   1.275       .  A
C396        C476   1.435       .  S
O397        C410   1.279       .  A
O397       Cd404   2.106       .  S
O398        C416   1.276       .  A
O398       Cd407   2.079       .  S
O399        C413   1.271       .  A
O399       Cd403   2.059       .  S
O400        C411   1.271   1_554  A
O400       Cd403   2.061       .  S
Zn401       O412   2.002       .  S
Zn401       O414   1.987       .  S
Zn401       O406   1.937       .  S
O402        C413   1.276       .  A
O402       Cd407   2.094       .  S
Cd403       O405   2.060       .  S
Cd403       O406   1.997       .  S
Cd404       O408   2.091       .  S
Cd404       O417   2.088       .  S
Cd404       O406   2.015       .  S
O405        C415   1.275       .  A
O406       Cd407   2.010       .  S
Cd407       O409   2.084       .  S
O408        C415   1.277       .  A
C410        O414   1.269       .  A
C411        C482   1.464       .  S
C413        C473   1.439       .  S
C415        C542   1.481       .  S
C416        O417   1.278       .  A
C416        C472   1.440       .  S
C418        C419   1.538       .  S
C418        C424   1.531       .  S
C418        C422   1.537       .  S
C418        C471   1.473       .  S
C419        H426   1.086       .  S
C419        C420   1.367       .  D
C420        C421   1.537       .  S
C420        C467   1.447       .  S
C421        C425   1.535       .  S
C421        C423   1.536       .  S
C421        H427   1.112       .  S
C422        H428   1.086       .  S
C422        C423   1.367       .  D
C423        C470   1.446       .  S
C424        H429   1.087       .  S
C424        C425   1.361       .  D
C425        C477   1.435       .  S
O430        C446   1.272       .  A
O430       Zn436   2.016       .  S
C431        O447   1.271       .  A
C431        O444   1.271       .  A
C431        C489   1.463       .  S
O432        C445   1.277       .  A
O432       Cd439   2.090       .  S
O433        C451   1.268       .  A
O433       Cd442   2.036       .  S
O434        C448   1.275       .  A
O434       Cd438   2.086       .  S
O435        C446   1.276       .  A
O435       Cd438   2.090       .  S
Zn436       O447   2.014       .  S
Zn436       O449   2.012       .  S
Zn436       O441   1.946       .  S
O437        C448   1.271       .  A
O437       Cd442   2.054       .  S
Cd438       O440   2.079       .  S
Cd438       O441   2.007       .  S
Cd439       O443   2.089       .  S
Cd439       O452   2.110       .  S
Cd439       O441   2.015       .  S
O440        C450   1.276       .  A
O441       Cd442   1.989       .  S
Cd442       O444   2.049       .  S
O443        C450   1.278       .  A
C445        O449   1.276       .  A
C445        C530   1.482       .  S
C446        C468   1.441       .  S
C450        C465   1.441       .  S
C451        O452   1.280       .  A
C453        C454   1.537       .  S
C453        C459   1.531       .  S
C453        C457   1.537       .  S
C453        C466   1.474       .  S
C454        H461   1.086       .  S
C454        C455   1.367   1_556  D
C455        C456   1.537       .  S
C455        C474   1.445       .  S
C456        C460   1.538       .  S
C456        C458   1.541       .  S
C456        H462   1.112       .  S
C457        H463   1.086       .  S
C457        C458   1.367   1_556  D
C458        C475   1.450       .  S
C459        H464   1.087       .  S
C459        C460   1.362   1_556  D
C460        C488   1.440       .  S
C465        C466   1.209       .  T
C467        C468   1.209       .  T
C469        C470   1.208       .  T
C471        C472   1.209       .  T
C473        C474   1.208       .  T
C477        C478   1.202       .  T
C478        C479   1.406       .  S
C479        C480   1.202       .  T
C481        H483   1.087       .  S
C481        C482   1.339       .  D
C482        H484   1.087       .  S
C485        C486   1.205       .  T
C486        C487   1.410       .  S
C487        C488   1.205       .  T
C489        H491   1.087       .  S
C489        C490   1.338       .  D
C490        H492   1.087       .  S
C493        H495   1.086       .  S
C493        C494   1.342       .  D
C497        H499   1.084       .  S
C497        C498   1.343       .  D
C498        H500   1.086       .  S
C501        C502   1.206       .  T
C503        C504   1.208       .  T
C505        C506   1.207       .  T
C507        C508   1.341   1_545  D
C508        H510   1.086       .  S
C511        H513   1.086       .  S
C511        C512   1.342       .  D
C512        H514   1.084       .  S
C515        C516   1.207       .  T
C517        C518   1.206       .  T
C519        C520   1.206       .  T
C521        C522   1.208       .  T
C522        C523   1.416       .  S
C523        C524   1.208       .  T
C525        H527   1.086       .  S
C525        C526   1.343       .  D
C526        H528   1.083       .  S
C529        H531   1.086       .  S
C529        C530   1.348       .  D
C530        H532   1.084       .  S
C533        H535   1.087       .  S
C533        C534   1.340       .  D
C534        H536   1.087       .  S
C537        C538   1.209       .  T
C538        C539   1.417       .  S
C539        C540   1.209       .  T
C541        H543   1.086       .  S
C541        C542   1.348       .  D
C542        H544   1.084       .  S
C545        C546   1.344   1_545  D
C546        H548   1.086       .  S
C549        H551   1.087       .  S
C549        C550   1.341       .  D
C550        H552   1.087       .  S
